*SPEF "ieee 1481-1999"
*DESIGN "async_up_down"
*DATE "11:11:11 Fri 11 11, 1111"
*VENDOR "OpenRCX"
*PROGRAM "Parallel Extraction"
*VERSION "1.0"
*DESIGN_FLOW "NAME_SCOPE LOCAL" "PIN_CAP NONE"
*DIVIDER /
*DELIMITER :
*BUS_DELIMITER []
*T_UNIT 1 NS
*C_UNIT 1 PF
*R_UNIT 1 OHM
*L_UNIT 1 HENRY

*NAME_MAP
*1 in_bias
*2 in_inn
*3 out_adc
*4 ring_adc
*5 one_bit_adc
*6 ring_osc
*7 PHY_0
*8 PHY_1
*9 PHY_2
*10 PHY_3
*11 PHY_4
*12 PHY_5
*13 PHY_6
*14 PHY_7
*15 PHY_8
*16 PHY_9
*17 PHY_10
*18 PHY_11
*19 PHY_12
*20 PHY_13
*21 PHY_14
*22 PHY_15
*23 PHY_16
*24 PHY_17
*25 PHY_18
*26 PHY_19
*27 PHY_20
*28 PHY_21
*29 PHY_22
*30 PHY_23
*31 PHY_24
*32 PHY_25
*33 PHY_26
*34 PHY_27
*35 PHY_28
*36 PHY_29
*37 PHY_30
*38 PHY_31
*39 PHY_32
*40 PHY_33
*41 PHY_34
*42 PHY_35
*43 PHY_36
*44 PHY_37
*45 PHY_38
*46 PHY_39
*47 PHY_40
*48 PHY_41
*49 PHY_42
*50 PHY_43
*51 PHY_44
*52 PHY_45
*53 PHY_46
*54 PHY_47
*55 PHY_48
*56 PHY_49
*57 PHY_50
*58 PHY_51
*59 PHY_52
*60 PHY_53
*61 PHY_54
*62 PHY_55
*63 PHY_56
*64 PHY_57
*65 PHY_58
*66 PHY_59
*67 PHY_60
*68 PHY_61
*69 PHY_62
*70 PHY_63
*71 PHY_64
*72 PHY_65
*73 PHY_66
*74 PHY_67
*75 PHY_68
*76 PHY_69
*77 PHY_70
*78 PHY_71
*79 PHY_72
*80 PHY_73
*81 PHY_74
*82 PHY_75
*83 PHY_76
*84 PHY_77
*85 PHY_78
*86 PHY_79
*87 PHY_80
*88 PHY_81
*89 PHY_82
*90 PHY_83
*91 PHY_84
*92 PHY_85
*93 PHY_86
*94 PHY_87
*95 PHY_88
*96 PHY_89
*97 PHY_90
*98 PHY_91
*99 PHY_92
*100 PHY_93
*101 PHY_94
*102 PHY_95
*103 PHY_96
*104 PHY_97
*105 PHY_98
*106 PHY_99
*107 PHY_100
*108 PHY_101
*109 PHY_102
*110 PHY_103
*111 PHY_104
*112 PHY_105
*113 PHY_106
*114 PHY_107
*115 PHY_108
*116 PHY_109
*117 PHY_110
*118 PHY_111
*119 PHY_112
*120 PHY_113
*121 PHY_114
*122 PHY_115
*123 PHY_116
*124 PHY_117
*125 PHY_118
*126 PHY_119
*127 PHY_120
*128 PHY_121
*129 PHY_122
*130 PHY_123
*131 PHY_124
*132 PHY_125
*133 PHY_126
*134 PHY_127
*135 PHY_128
*136 PHY_129
*137 PHY_130
*138 PHY_131
*139 PHY_132
*140 PHY_133
*141 PHY_134
*142 PHY_135
*143 PHY_136
*144 PHY_137
*145 PHY_138
*146 PHY_139
*147 PHY_140
*148 PHY_141
*149 PHY_142
*150 PHY_143
*151 PHY_144
*152 PHY_145
*153 PHY_146
*154 PHY_147
*155 PHY_148
*156 PHY_149
*157 PHY_150
*158 PHY_151
*159 PHY_152
*160 PHY_153
*161 PHY_154
*162 PHY_155
*163 PHY_156
*164 PHY_157
*165 PHY_158
*166 PHY_159
*167 PHY_160
*168 PHY_161
*169 PHY_162
*170 PHY_163
*171 PHY_164
*172 PHY_165
*173 PHY_166
*174 PHY_167
*175 PHY_168
*176 PHY_169
*177 PHY_170
*178 PHY_171
*179 PHY_172
*180 PHY_173
*181 PHY_174
*182 PHY_175
*183 PHY_176
*184 PHY_177
*185 PHY_178
*186 PHY_179
*187 PHY_180
*188 PHY_181
*189 PHY_182
*190 PHY_183
*191 PHY_184
*192 PHY_185
*193 PHY_186
*194 PHY_187
*195 PHY_188
*196 PHY_189
*197 PHY_190
*198 PHY_191
*199 PHY_192
*200 PHY_193
*201 PHY_194
*202 PHY_195
*203 PHY_196
*204 PHY_197
*205 PHY_198
*206 PHY_199
*207 PHY_200
*208 PHY_201
*209 PHY_202
*210 PHY_203
*211 TAP_204
*212 TAP_205
*213 TAP_206
*214 TAP_207
*215 TAP_208
*216 TAP_209
*217 TAP_210
*218 TAP_211
*219 TAP_212
*220 TAP_213
*221 TAP_214
*222 TAP_215
*223 TAP_216
*224 TAP_217
*225 TAP_218
*226 TAP_219
*227 TAP_220
*228 TAP_221
*229 TAP_222
*230 TAP_223
*231 TAP_224
*232 TAP_225
*233 TAP_226
*234 TAP_227
*235 TAP_228
*236 TAP_229
*237 TAP_230
*238 TAP_231
*239 TAP_232
*240 TAP_233
*241 TAP_234
*242 TAP_235
*243 TAP_236
*244 TAP_237
*245 TAP_238
*246 TAP_239
*247 TAP_240
*248 TAP_241
*249 TAP_242
*250 TAP_243
*251 TAP_244
*252 TAP_245
*253 TAP_246
*254 TAP_247
*255 TAP_248
*256 TAP_249
*257 TAP_250
*258 TAP_251
*259 TAP_252
*260 TAP_253
*261 TAP_254
*262 TAP_255
*263 TAP_256
*264 TAP_257
*265 TAP_258
*266 TAP_259
*267 TAP_260
*268 TAP_261
*269 TAP_262
*270 TAP_263
*271 TAP_264
*272 TAP_265
*273 TAP_266
*274 TAP_267
*275 TAP_268
*276 TAP_269
*277 TAP_270
*278 TAP_271
*279 TAP_272
*280 TAP_273
*281 TAP_274
*282 TAP_275
*283 TAP_276
*284 TAP_277
*285 TAP_278
*286 TAP_279
*287 TAP_280
*288 TAP_281
*289 TAP_282
*290 TAP_283
*291 TAP_284
*292 TAP_285
*293 TAP_286
*294 TAP_287
*295 TAP_288
*296 TAP_289
*297 TAP_290
*298 TAP_291
*299 TAP_292
*300 TAP_293
*301 TAP_294
*302 TAP_295
*303 TAP_296
*304 TAP_297
*305 TAP_298
*306 TAP_299
*307 TAP_300
*308 TAP_301
*309 TAP_302
*310 TAP_303
*311 TAP_304
*312 TAP_305
*313 TAP_306
*314 TAP_307
*315 TAP_308
*316 TAP_309
*317 TAP_310
*318 TAP_311
*319 TAP_312
*320 TAP_313
*321 TAP_314
*322 TAP_315
*323 TAP_316
*324 TAP_317
*325 TAP_318
*326 TAP_319
*327 TAP_320
*328 TAP_321
*329 TAP_322
*330 TAP_323
*331 TAP_324
*332 TAP_325
*333 TAP_326
*334 TAP_327
*335 TAP_328
*336 TAP_329
*337 TAP_330
*338 TAP_331
*339 TAP_332
*340 TAP_333
*341 TAP_334
*342 TAP_335
*343 TAP_336
*344 TAP_337
*345 TAP_338
*346 TAP_339
*347 TAP_340
*348 TAP_341
*349 TAP_342
*350 TAP_343
*351 TAP_344
*352 TAP_345
*353 TAP_346
*354 TAP_347
*355 TAP_348
*356 TAP_349
*357 TAP_350
*358 TAP_351
*359 TAP_352
*360 TAP_353
*361 TAP_354
*362 TAP_355
*363 TAP_356
*364 TAP_357
*365 TAP_358
*366 TAP_359
*367 TAP_360
*368 TAP_361
*369 TAP_362
*370 TAP_363
*371 TAP_364
*372 TAP_365
*373 TAP_366
*374 TAP_367
*375 TAP_368
*376 TAP_369
*377 TAP_370
*378 TAP_371
*379 TAP_372
*380 TAP_373
*381 TAP_374
*382 TAP_375
*383 TAP_376
*384 TAP_377
*385 TAP_378
*386 TAP_379
*387 TAP_380
*388 TAP_381
*389 TAP_382
*390 TAP_383
*391 TAP_384
*392 TAP_385
*393 TAP_386
*394 TAP_387
*395 TAP_388
*396 TAP_389
*397 TAP_390
*398 TAP_391
*399 TAP_392
*400 TAP_393
*401 TAP_394
*402 TAP_395
*403 TAP_396
*404 TAP_397
*405 TAP_398
*406 TAP_399
*407 TAP_400
*408 TAP_401
*409 TAP_402
*410 TAP_403
*411 TAP_404
*412 TAP_405
*413 TAP_406
*414 TAP_407
*415 TAP_408
*416 TAP_409
*417 TAP_410
*418 TAP_411
*419 TAP_412
*420 TAP_413
*421 TAP_414
*422 TAP_415
*423 TAP_416
*424 TAP_417
*425 TAP_418
*426 TAP_419
*427 TAP_420
*428 TAP_421
*429 TAP_422
*430 TAP_423
*431 TAP_424
*432 TAP_425
*433 TAP_426
*434 TAP_427
*435 TAP_428
*436 TAP_429
*437 TAP_430
*438 TAP_431
*439 TAP_432
*440 TAP_433
*441 TAP_434
*442 TAP_435
*443 TAP_436
*444 TAP_437
*445 TAP_438
*446 TAP_439
*447 TAP_440
*448 TAP_441
*449 TAP_442
*450 TAP_443
*451 TAP_444
*452 TAP_445
*453 TAP_446
*454 TAP_447
*455 TAP_448
*456 TAP_449
*457 TAP_450
*458 TAP_451
*459 TAP_452
*460 TAP_453
*461 TAP_454
*462 TAP_455
*463 TAP_456
*464 TAP_457
*465 TAP_458
*466 TAP_459
*467 TAP_460
*468 TAP_461
*469 TAP_462
*470 TAP_463
*471 TAP_464
*472 TAP_465
*473 TAP_466
*474 TAP_467
*475 TAP_468
*476 TAP_469
*477 TAP_470
*478 TAP_471
*479 TAP_472
*480 TAP_473
*481 TAP_474
*482 TAP_475
*483 TAP_476
*484 TAP_477
*485 TAP_478
*486 TAP_479
*487 TAP_480
*488 TAP_481
*489 TAP_482
*490 TAP_483
*491 TAP_484
*492 TAP_485
*493 TAP_486
*494 TAP_487
*495 TAP_488
*496 TAP_489
*497 TAP_490
*498 TAP_491
*499 TAP_492
*500 TAP_493
*501 TAP_494
*502 TAP_495
*503 TAP_496
*504 TAP_497
*505 TAP_498
*506 TAP_499
*507 TAP_500
*508 TAP_501
*509 TAP_502
*510 TAP_503
*511 TAP_504
*512 TAP_505
*513 TAP_506
*514 TAP_507
*515 TAP_508
*516 TAP_509
*517 TAP_510
*518 TAP_511
*519 TAP_512
*520 TAP_513
*521 TAP_514
*522 TAP_515
*523 TAP_516
*524 TAP_517
*525 TAP_518
*526 TAP_519
*527 TAP_520
*528 TAP_521
*529 TAP_522
*530 TAP_523
*531 TAP_524
*532 TAP_525
*533 TAP_526
*534 TAP_527
*535 TAP_528
*536 TAP_529
*537 TAP_530
*538 TAP_531
*539 TAP_532
*540 TAP_533
*541 TAP_534
*542 TAP_535
*543 TAP_536
*544 TAP_537
*545 TAP_538
*546 TAP_539
*547 TAP_540
*548 TAP_541
*549 TAP_542
*550 TAP_543
*551 TAP_544
*552 TAP_545
*553 TAP_546
*554 TAP_547
*555 TAP_548
*556 TAP_549
*557 TAP_550
*558 TAP_551
*559 TAP_552
*560 TAP_553
*561 TAP_554
*562 TAP_555
*563 TAP_556
*564 TAP_557
*565 TAP_558
*566 TAP_559
*567 TAP_560
*568 TAP_561
*569 TAP_562
*570 TAP_563
*571 TAP_564
*572 TAP_565
*573 TAP_566
*574 TAP_567
*575 TAP_568
*576 TAP_569
*577 TAP_570
*578 TAP_571
*579 TAP_572
*580 TAP_573
*581 TAP_574
*582 TAP_575
*583 TAP_576
*584 TAP_577
*585 TAP_578
*586 TAP_579
*587 TAP_580
*588 TAP_581
*589 TAP_582
*590 TAP_583
*591 TAP_584
*592 TAP_585
*593 TAP_586
*594 TAP_587
*595 TAP_588
*596 TAP_589
*597 TAP_590
*598 TAP_591
*599 TAP_592
*600 TAP_593
*601 TAP_594
*602 TAP_595
*603 TAP_596
*604 TAP_597
*605 TAP_598
*606 TAP_599
*607 TAP_600
*608 TAP_601
*609 TAP_602
*610 TAP_603
*611 TAP_604
*612 TAP_605
*613 TAP_606
*614 TAP_607
*615 TAP_608
*616 TAP_609
*617 TAP_610
*618 TAP_611
*619 TAP_612
*620 TAP_613
*621 TAP_614
*622 TAP_615
*623 TAP_616
*624 TAP_617
*625 TAP_618
*626 TAP_619
*627 TAP_620
*628 TAP_621
*629 TAP_622
*630 TAP_623
*631 TAP_624
*632 TAP_625
*633 TAP_626
*634 TAP_627
*635 TAP_628
*636 TAP_629
*637 TAP_630
*638 TAP_631
*639 TAP_632
*640 TAP_633
*641 TAP_634
*642 TAP_635
*643 TAP_636
*644 TAP_637
*645 TAP_638
*646 TAP_639
*647 TAP_640
*648 TAP_641
*649 TAP_642
*650 TAP_643
*651 TAP_644
*652 TAP_645
*653 TAP_646
*654 TAP_647
*655 TAP_648
*656 TAP_649
*657 TAP_650
*658 TAP_651
*659 TAP_652
*660 TAP_653
*661 TAP_654
*662 TAP_655
*663 TAP_656
*664 TAP_657
*665 TAP_658
*666 TAP_659
*667 TAP_660
*668 TAP_661
*669 TAP_662
*670 TAP_663
*671 TAP_664
*672 TAP_665
*673 TAP_666
*674 TAP_667
*675 TAP_668
*676 TAP_669
*677 TAP_670
*678 TAP_671
*679 TAP_672
*680 TAP_673
*681 TAP_674
*682 TAP_675
*683 TAP_676
*684 TAP_677
*685 TAP_678
*686 TAP_679
*687 TAP_680
*688 TAP_681
*689 TAP_682
*690 TAP_683
*691 TAP_684
*692 TAP_685
*693 TAP_686
*694 TAP_687
*695 TAP_688
*696 TAP_689
*697 TAP_690
*698 TAP_691
*699 TAP_692
*700 TAP_693
*701 TAP_694
*702 TAP_695
*703 TAP_696
*704 TAP_697
*705 TAP_698
*706 TAP_699
*707 TAP_700
*708 TAP_701
*709 TAP_702
*710 TAP_703
*711 TAP_704
*712 TAP_705
*713 TAP_706
*714 TAP_707
*715 TAP_708
*716 TAP_709
*717 TAP_710
*718 TAP_711
*719 TAP_712
*720 TAP_713
*721 TAP_714
*722 TAP_715
*723 TAP_716
*724 TAP_717
*725 TAP_718
*726 TAP_719
*727 TAP_720
*728 TAP_721
*729 TAP_722
*730 TAP_723
*731 TAP_724
*732 TAP_725
*733 TAP_726
*734 TAP_727
*735 TAP_728
*736 TAP_729
*737 TAP_730
*738 TAP_731
*739 TAP_732
*740 TAP_733
*741 TAP_734
*742 TAP_735
*743 TAP_736
*744 TAP_737
*745 TAP_738
*746 TAP_739
*747 TAP_740
*748 TAP_741
*749 TAP_742
*750 TAP_743
*751 TAP_744
*752 TAP_745
*753 TAP_746
*754 TAP_747
*755 TAP_748
*756 TAP_749
*757 TAP_750
*758 TAP_751
*759 TAP_752
*760 TAP_753
*761 TAP_754
*762 TAP_755
*763 TAP_756
*764 TAP_757
*765 TAP_758
*766 TAP_759
*767 TAP_760
*768 TAP_761
*769 TAP_762
*770 TAP_763
*771 TAP_764
*772 TAP_765
*773 TAP_766
*774 TAP_767
*775 TAP_768
*776 TAP_769
*777 TAP_770
*778 TAP_771
*779 TAP_772
*780 TAP_773
*781 TAP_774
*782 TAP_775
*783 TAP_776
*784 TAP_777
*785 TAP_778
*786 TAP_779
*787 TAP_780
*788 TAP_781
*789 TAP_782
*790 TAP_783
*791 TAP_784
*792 TAP_785
*793 TAP_786
*794 TAP_787
*795 TAP_788
*796 TAP_789
*797 TAP_790
*798 TAP_791
*799 TAP_792
*800 TAP_793
*801 TAP_794
*802 TAP_795
*803 TAP_796
*804 TAP_797
*805 TAP_798
*806 TAP_799
*807 TAP_800
*808 TAP_801
*809 TAP_802
*810 TAP_803
*811 TAP_804
*812 TAP_805
*813 TAP_806
*814 TAP_807
*815 TAP_808
*816 TAP_809
*817 TAP_810
*818 TAP_811
*819 TAP_812
*820 TAP_813
*821 TAP_814
*822 TAP_815
*823 TAP_816
*824 TAP_817
*825 TAP_818
*826 TAP_819
*827 TAP_820
*828 TAP_821
*829 TAP_822
*830 TAP_823
*831 TAP_824
*832 TAP_825
*833 TAP_826
*834 TAP_827
*835 TAP_828
*836 TAP_829
*837 TAP_830
*838 TAP_831
*839 TAP_832
*840 TAP_833
*841 TAP_834
*842 TAP_835
*843 TAP_836
*844 TAP_837
*845 TAP_838
*846 TAP_839
*847 TAP_840
*848 TAP_841
*849 TAP_842
*850 TAP_843
*851 TAP_844
*852 TAP_845
*853 TAP_846
*854 TAP_847
*855 TAP_848
*856 TAP_849
*857 TAP_850
*858 TAP_851
*859 TAP_852
*860 TAP_853
*861 TAP_854
*862 TAP_855
*863 TAP_856
*864 TAP_857
*865 TAP_858
*866 TAP_859
*867 TAP_860
*868 TAP_861
*869 TAP_862
*870 TAP_863
*871 TAP_864
*872 TAP_865
*873 TAP_866
*874 TAP_867
*875 TAP_868
*876 TAP_869
*877 TAP_870
*878 TAP_871
*879 TAP_872
*880 TAP_873
*881 TAP_874
*882 TAP_875
*883 TAP_876
*884 TAP_877
*885 TAP_878
*886 TAP_879
*887 TAP_880
*888 TAP_881
*889 TAP_882
*890 TAP_883
*891 TAP_884
*892 TAP_885
*893 TAP_886
*894 TAP_887
*895 TAP_888
*896 TAP_889
*897 TAP_890
*898 TAP_891
*899 TAP_892
*900 TAP_893
*901 TAP_894
*902 TAP_895
*903 TAP_896
*904 TAP_897
*905 TAP_898
*906 TAP_899
*907 TAP_900
*908 TAP_901
*909 TAP_902
*910 TAP_903
*911 TAP_904
*912 TAP_905
*913 TAP_906
*914 TAP_907
*915 TAP_908
*916 TAP_909
*917 TAP_910
*918 TAP_911
*919 TAP_912
*920 TAP_913
*921 TAP_914
*922 FILLER_0_4
*923 FILLER_0_12
*924 FILLER_0_20
*925 FILLER_0_28
*926 FILLER_0_31
*927 FILLER_0_39
*928 FILLER_0_47
*929 FILLER_0_55
*930 FILLER_0_59
*931 FILLER_0_61
*932 FILLER_0_69
*933 FILLER_0_77
*934 FILLER_0_85
*935 FILLER_0_89
*936 FILLER_0_91
*937 FILLER_0_99
*938 FILLER_0_107
*939 FILLER_0_115
*940 FILLER_0_119
*941 FILLER_0_121
*942 FILLER_0_129
*943 FILLER_0_137
*944 FILLER_0_145
*945 FILLER_0_149
*946 FILLER_0_151
*947 FILLER_0_159
*948 FILLER_0_167
*949 FILLER_0_175
*950 FILLER_0_179
*951 FILLER_0_181
*952 FILLER_0_189
*953 FILLER_0_197
*954 FILLER_0_205
*955 FILLER_0_209
*956 FILLER_0_211
*957 FILLER_0_219
*958 FILLER_0_227
*959 FILLER_0_235
*960 FILLER_0_239
*961 FILLER_0_241
*962 FILLER_0_249
*963 FILLER_0_257
*964 FILLER_0_265
*965 FILLER_0_269
*966 FILLER_0_271
*967 FILLER_0_279
*968 FILLER_0_287
*969 FILLER_0_295
*970 FILLER_0_299
*971 FILLER_0_301
*972 FILLER_0_309
*973 FILLER_0_317
*974 FILLER_0_325
*975 FILLER_0_329
*976 FILLER_0_331
*977 FILLER_0_339
*978 FILLER_0_347
*979 FILLER_0_355
*980 FILLER_0_359
*981 FILLER_0_361
*982 FILLER_0_369
*983 FILLER_0_377
*984 FILLER_0_385
*985 FILLER_0_389
*986 FILLER_0_391
*987 FILLER_0_399
*988 FILLER_0_407
*989 FILLER_0_415
*990 FILLER_0_419
*991 FILLER_0_421
*992 FILLER_0_429
*993 FILLER_0_437
*994 FILLER_0_445
*995 FILLER_0_449
*996 FILLER_0_451
*997 FILLER_0_459
*998 FILLER_0_467
*999 FILLER_0_475
*1000 FILLER_0_479
*1001 FILLER_0_481
*1002 FILLER_0_489
*1003 FILLER_0_497
*1004 FILLER_0_505
*1005 FILLER_1_4
*1006 FILLER_1_12
*1007 FILLER_1_20
*1008 FILLER_1_28
*1009 FILLER_1_36
*1010 FILLER_1_44
*1011 FILLER_1_52
*1012 FILLER_1_61
*1013 FILLER_1_69
*1014 FILLER_1_77
*1015 FILLER_1_85
*1016 FILLER_1_93
*1017 FILLER_1_101
*1018 FILLER_1_109
*1019 FILLER_1_117
*1020 FILLER_1_119
*1021 FILLER_1_121
*1022 FILLER_1_129
*1023 FILLER_1_137
*1024 FILLER_1_145
*1025 FILLER_1_153
*1026 FILLER_1_161
*1027 FILLER_1_169
*1028 FILLER_1_177
*1029 FILLER_1_179
*1030 FILLER_1_181
*1031 FILLER_1_189
*1032 FILLER_1_197
*1033 FILLER_1_205
*1034 FILLER_1_213
*1035 FILLER_1_221
*1036 FILLER_1_229
*1037 FILLER_1_237
*1038 FILLER_1_239
*1039 FILLER_1_241
*1040 FILLER_1_249
*1041 FILLER_1_257
*1042 FILLER_1_265
*1043 FILLER_1_273
*1044 FILLER_1_281
*1045 FILLER_1_289
*1046 FILLER_1_297
*1047 FILLER_1_299
*1048 FILLER_1_301
*1049 FILLER_1_309
*1050 FILLER_1_317
*1051 FILLER_1_325
*1052 FILLER_1_333
*1053 FILLER_1_341
*1054 FILLER_1_349
*1055 FILLER_1_357
*1056 FILLER_1_359
*1057 FILLER_1_361
*1058 FILLER_1_369
*1059 FILLER_1_377
*1060 FILLER_1_385
*1061 FILLER_1_393
*1062 FILLER_1_401
*1063 FILLER_1_409
*1064 FILLER_1_417
*1065 FILLER_1_419
*1066 FILLER_1_421
*1067 FILLER_1_429
*1068 FILLER_1_437
*1069 FILLER_1_445
*1070 FILLER_1_453
*1071 FILLER_1_461
*1072 FILLER_1_469
*1073 FILLER_1_477
*1074 FILLER_1_479
*1075 FILLER_1_481
*1076 FILLER_1_489
*1077 FILLER_1_497
*1078 FILLER_1_505
*1079 FILLER_2_4
*1080 FILLER_2_12
*1081 FILLER_2_20
*1082 FILLER_2_28
*1083 FILLER_2_31
*1084 FILLER_2_39
*1085 FILLER_2_47
*1086 FILLER_2_55
*1087 FILLER_2_63
*1088 FILLER_2_71
*1089 FILLER_2_79
*1090 FILLER_2_87
*1091 FILLER_2_89
*1092 FILLER_2_91
*1093 FILLER_2_99
*1094 FILLER_2_107
*1095 FILLER_2_115
*1096 FILLER_2_123
*1097 FILLER_2_131
*1098 FILLER_2_139
*1099 FILLER_2_147
*1100 FILLER_2_149
*1101 FILLER_2_151
*1102 FILLER_2_159
*1103 FILLER_2_167
*1104 FILLER_2_175
*1105 FILLER_2_183
*1106 FILLER_2_191
*1107 FILLER_2_199
*1108 FILLER_2_207
*1109 FILLER_2_209
*1110 FILLER_2_211
*1111 FILLER_2_219
*1112 FILLER_2_227
*1113 FILLER_2_235
*1114 FILLER_2_243
*1115 FILLER_2_251
*1116 FILLER_2_259
*1117 FILLER_2_267
*1118 FILLER_2_269
*1119 FILLER_2_271
*1120 FILLER_2_279
*1121 FILLER_2_287
*1122 FILLER_2_295
*1123 FILLER_2_303
*1124 FILLER_2_311
*1125 FILLER_2_319
*1126 FILLER_2_327
*1127 FILLER_2_329
*1128 FILLER_2_331
*1129 FILLER_2_339
*1130 FILLER_2_347
*1131 FILLER_2_355
*1132 FILLER_2_363
*1133 FILLER_2_371
*1134 FILLER_2_379
*1135 FILLER_2_387
*1136 FILLER_2_389
*1137 FILLER_2_391
*1138 FILLER_2_399
*1139 FILLER_2_407
*1140 FILLER_2_415
*1141 FILLER_2_423
*1142 FILLER_2_431
*1143 FILLER_2_439
*1144 FILLER_2_447
*1145 FILLER_2_449
*1146 FILLER_2_451
*1147 FILLER_2_459
*1148 FILLER_2_467
*1149 FILLER_2_475
*1150 FILLER_2_483
*1151 FILLER_2_491
*1152 FILLER_2_499
*1153 FILLER_2_503
*1154 FILLER_2_505
*1155 FILLER_3_4
*1156 FILLER_3_12
*1157 FILLER_3_20
*1158 FILLER_3_28
*1159 FILLER_3_36
*1160 FILLER_3_44
*1161 FILLER_3_52
*1162 FILLER_3_61
*1163 FILLER_3_69
*1164 FILLER_3_77
*1165 FILLER_3_85
*1166 FILLER_3_93
*1167 FILLER_3_101
*1168 FILLER_3_109
*1169 FILLER_3_117
*1170 FILLER_3_119
*1171 FILLER_3_121
*1172 FILLER_3_129
*1173 FILLER_3_137
*1174 FILLER_3_145
*1175 FILLER_3_153
*1176 FILLER_3_161
*1177 FILLER_3_169
*1178 FILLER_3_177
*1179 FILLER_3_179
*1180 FILLER_3_181
*1181 FILLER_3_189
*1182 FILLER_3_197
*1183 FILLER_3_205
*1184 FILLER_3_213
*1185 FILLER_3_221
*1186 FILLER_3_229
*1187 FILLER_3_237
*1188 FILLER_3_239
*1189 FILLER_3_241
*1190 FILLER_3_249
*1191 FILLER_3_257
*1192 FILLER_3_265
*1193 FILLER_3_273
*1194 FILLER_3_281
*1195 FILLER_3_289
*1196 FILLER_3_297
*1197 FILLER_3_299
*1198 FILLER_3_301
*1199 FILLER_3_309
*1200 FILLER_3_317
*1201 FILLER_3_325
*1202 FILLER_3_333
*1203 FILLER_3_341
*1204 FILLER_3_349
*1205 FILLER_3_357
*1206 FILLER_3_359
*1207 FILLER_3_361
*1208 FILLER_3_369
*1209 FILLER_3_377
*1210 FILLER_3_385
*1211 FILLER_3_393
*1212 FILLER_3_401
*1213 FILLER_3_409
*1214 FILLER_3_417
*1215 FILLER_3_419
*1216 FILLER_3_421
*1217 FILLER_3_429
*1218 FILLER_3_437
*1219 FILLER_3_445
*1220 FILLER_3_453
*1221 FILLER_3_461
*1222 FILLER_3_469
*1223 FILLER_3_477
*1224 FILLER_3_479
*1225 FILLER_3_481
*1226 FILLER_3_489
*1227 FILLER_3_497
*1228 FILLER_3_505
*1229 FILLER_4_4
*1230 FILLER_4_12
*1231 FILLER_4_20
*1232 FILLER_4_28
*1233 FILLER_4_31
*1234 FILLER_4_39
*1235 FILLER_4_47
*1236 FILLER_4_55
*1237 FILLER_4_63
*1238 FILLER_4_71
*1239 FILLER_4_79
*1240 FILLER_4_87
*1241 FILLER_4_89
*1242 FILLER_4_91
*1243 FILLER_4_99
*1244 FILLER_4_107
*1245 FILLER_4_115
*1246 FILLER_4_123
*1247 FILLER_4_131
*1248 FILLER_4_139
*1249 FILLER_4_147
*1250 FILLER_4_149
*1251 FILLER_4_151
*1252 FILLER_4_159
*1253 FILLER_4_167
*1254 FILLER_4_175
*1255 FILLER_4_183
*1256 FILLER_4_191
*1257 FILLER_4_199
*1258 FILLER_4_207
*1259 FILLER_4_209
*1260 FILLER_4_211
*1261 FILLER_4_219
*1262 FILLER_4_227
*1263 FILLER_4_235
*1264 FILLER_4_243
*1265 FILLER_4_251
*1266 FILLER_4_259
*1267 FILLER_4_267
*1268 FILLER_4_269
*1269 FILLER_4_271
*1270 FILLER_4_279
*1271 FILLER_4_287
*1272 FILLER_4_295
*1273 FILLER_4_303
*1274 FILLER_4_311
*1275 FILLER_4_319
*1276 FILLER_4_327
*1277 FILLER_4_329
*1278 FILLER_4_331
*1279 FILLER_4_339
*1280 FILLER_4_347
*1281 FILLER_4_355
*1282 FILLER_4_363
*1283 FILLER_4_371
*1284 FILLER_4_379
*1285 FILLER_4_387
*1286 FILLER_4_389
*1287 FILLER_4_391
*1288 FILLER_4_399
*1289 FILLER_4_407
*1290 FILLER_4_415
*1291 FILLER_4_423
*1292 FILLER_4_431
*1293 FILLER_4_439
*1294 FILLER_4_447
*1295 FILLER_4_449
*1296 FILLER_4_451
*1297 FILLER_4_459
*1298 FILLER_4_467
*1299 FILLER_4_475
*1300 FILLER_4_483
*1301 FILLER_4_491
*1302 FILLER_4_499
*1303 FILLER_4_503
*1304 FILLER_4_505
*1305 FILLER_5_4
*1306 FILLER_5_12
*1307 FILLER_5_20
*1308 FILLER_5_28
*1309 FILLER_5_36
*1310 FILLER_5_44
*1311 FILLER_5_52
*1312 FILLER_5_61
*1313 FILLER_5_69
*1314 FILLER_5_77
*1315 FILLER_5_85
*1316 FILLER_5_93
*1317 FILLER_5_101
*1318 FILLER_5_109
*1319 FILLER_5_117
*1320 FILLER_5_119
*1321 FILLER_5_121
*1322 FILLER_5_129
*1323 FILLER_5_137
*1324 FILLER_5_145
*1325 FILLER_5_153
*1326 FILLER_5_161
*1327 FILLER_5_169
*1328 FILLER_5_177
*1329 FILLER_5_179
*1330 FILLER_5_181
*1331 FILLER_5_189
*1332 FILLER_5_197
*1333 FILLER_5_205
*1334 FILLER_5_213
*1335 FILLER_5_221
*1336 FILLER_5_229
*1337 FILLER_5_237
*1338 FILLER_5_239
*1339 FILLER_5_241
*1340 FILLER_5_249
*1341 FILLER_5_257
*1342 FILLER_5_265
*1343 FILLER_5_273
*1344 FILLER_5_281
*1345 FILLER_5_289
*1346 FILLER_5_297
*1347 FILLER_5_299
*1348 FILLER_5_301
*1349 FILLER_5_309
*1350 FILLER_5_317
*1351 FILLER_5_325
*1352 FILLER_5_333
*1353 FILLER_5_341
*1354 FILLER_5_349
*1355 FILLER_5_357
*1356 FILLER_5_359
*1357 FILLER_5_361
*1358 FILLER_5_369
*1359 FILLER_5_377
*1360 FILLER_5_385
*1361 FILLER_5_393
*1362 FILLER_5_401
*1363 FILLER_5_409
*1364 FILLER_5_417
*1365 FILLER_5_419
*1366 FILLER_5_421
*1367 FILLER_5_429
*1368 FILLER_5_437
*1369 FILLER_5_445
*1370 FILLER_5_453
*1371 FILLER_5_461
*1372 FILLER_5_469
*1373 FILLER_5_477
*1374 FILLER_5_479
*1375 FILLER_5_481
*1376 FILLER_5_489
*1377 FILLER_5_497
*1378 FILLER_5_505
*1379 FILLER_6_4
*1380 FILLER_6_12
*1381 FILLER_6_20
*1382 FILLER_6_28
*1383 FILLER_6_31
*1384 FILLER_6_39
*1385 FILLER_6_47
*1386 FILLER_6_55
*1387 FILLER_6_63
*1388 FILLER_6_71
*1389 FILLER_6_79
*1390 FILLER_6_87
*1391 FILLER_6_89
*1392 FILLER_6_91
*1393 FILLER_6_99
*1394 FILLER_6_107
*1395 FILLER_6_115
*1396 FILLER_6_123
*1397 FILLER_6_131
*1398 FILLER_6_139
*1399 FILLER_6_147
*1400 FILLER_6_149
*1401 FILLER_6_151
*1402 FILLER_6_159
*1403 FILLER_6_167
*1404 FILLER_6_175
*1405 FILLER_6_183
*1406 FILLER_6_191
*1407 FILLER_6_199
*1408 FILLER_6_207
*1409 FILLER_6_209
*1410 FILLER_6_211
*1411 FILLER_6_219
*1412 FILLER_6_227
*1413 FILLER_6_235
*1414 FILLER_6_243
*1415 FILLER_6_251
*1416 FILLER_6_259
*1417 FILLER_6_267
*1418 FILLER_6_269
*1419 FILLER_6_271
*1420 FILLER_6_279
*1421 FILLER_6_287
*1422 FILLER_6_295
*1423 FILLER_6_303
*1424 FILLER_6_311
*1425 FILLER_6_319
*1426 FILLER_6_327
*1427 FILLER_6_329
*1428 FILLER_6_331
*1429 FILLER_6_339
*1430 FILLER_6_347
*1431 FILLER_6_355
*1432 FILLER_6_363
*1433 FILLER_6_371
*1434 FILLER_6_379
*1435 FILLER_6_387
*1436 FILLER_6_389
*1437 FILLER_6_391
*1438 FILLER_6_399
*1439 FILLER_6_407
*1440 FILLER_6_415
*1441 FILLER_6_423
*1442 FILLER_6_431
*1443 FILLER_6_439
*1444 FILLER_6_447
*1445 FILLER_6_449
*1446 FILLER_6_451
*1447 FILLER_6_459
*1448 FILLER_6_467
*1449 FILLER_6_475
*1450 FILLER_6_483
*1451 FILLER_6_491
*1452 FILLER_6_499
*1453 FILLER_6_503
*1454 FILLER_6_505
*1455 FILLER_7_4
*1456 FILLER_7_12
*1457 FILLER_7_20
*1458 FILLER_7_28
*1459 FILLER_7_36
*1460 FILLER_7_44
*1461 FILLER_7_52
*1462 FILLER_7_61
*1463 FILLER_7_69
*1464 FILLER_7_77
*1465 FILLER_7_85
*1466 FILLER_7_93
*1467 FILLER_7_101
*1468 FILLER_7_109
*1469 FILLER_7_117
*1470 FILLER_7_119
*1471 FILLER_7_121
*1472 FILLER_7_129
*1473 FILLER_7_137
*1474 FILLER_7_145
*1475 FILLER_7_153
*1476 FILLER_7_161
*1477 FILLER_7_169
*1478 FILLER_7_177
*1479 FILLER_7_179
*1480 FILLER_7_181
*1481 FILLER_7_189
*1482 FILLER_7_197
*1483 FILLER_7_205
*1484 FILLER_7_213
*1485 FILLER_7_221
*1486 FILLER_7_229
*1487 FILLER_7_237
*1488 FILLER_7_239
*1489 FILLER_7_241
*1490 FILLER_7_249
*1491 FILLER_7_257
*1492 FILLER_7_265
*1493 FILLER_7_273
*1494 FILLER_7_281
*1495 FILLER_7_289
*1496 FILLER_7_297
*1497 FILLER_7_299
*1498 FILLER_7_301
*1499 FILLER_7_309
*1500 FILLER_7_317
*1501 FILLER_7_325
*1502 FILLER_7_333
*1503 FILLER_7_341
*1504 FILLER_7_349
*1505 FILLER_7_357
*1506 FILLER_7_359
*1507 FILLER_7_361
*1508 FILLER_7_369
*1509 FILLER_7_377
*1510 FILLER_7_385
*1511 FILLER_7_393
*1512 FILLER_7_401
*1513 FILLER_7_409
*1514 FILLER_7_417
*1515 FILLER_7_419
*1516 FILLER_7_421
*1517 FILLER_7_429
*1518 FILLER_7_437
*1519 FILLER_7_445
*1520 FILLER_7_453
*1521 FILLER_7_461
*1522 FILLER_7_469
*1523 FILLER_7_477
*1524 FILLER_7_479
*1525 FILLER_7_481
*1526 FILLER_7_489
*1527 FILLER_7_497
*1528 FILLER_7_505
*1529 FILLER_8_4
*1530 FILLER_8_12
*1531 FILLER_8_20
*1532 FILLER_8_28
*1533 FILLER_8_31
*1534 FILLER_8_39
*1535 FILLER_8_47
*1536 FILLER_8_55
*1537 FILLER_8_63
*1538 FILLER_8_71
*1539 FILLER_8_79
*1540 FILLER_8_87
*1541 FILLER_8_89
*1542 FILLER_8_91
*1543 FILLER_8_99
*1544 FILLER_8_107
*1545 FILLER_8_115
*1546 FILLER_8_123
*1547 FILLER_8_131
*1548 FILLER_8_139
*1549 FILLER_8_147
*1550 FILLER_8_149
*1551 FILLER_8_151
*1552 FILLER_8_159
*1553 FILLER_8_167
*1554 FILLER_8_175
*1555 FILLER_8_183
*1556 FILLER_8_191
*1557 FILLER_8_199
*1558 FILLER_8_207
*1559 FILLER_8_209
*1560 FILLER_8_211
*1561 FILLER_8_219
*1562 FILLER_8_227
*1563 FILLER_8_235
*1564 FILLER_8_243
*1565 FILLER_8_251
*1566 FILLER_8_259
*1567 FILLER_8_267
*1568 FILLER_8_269
*1569 FILLER_8_271
*1570 FILLER_8_279
*1571 FILLER_8_287
*1572 FILLER_8_295
*1573 FILLER_8_303
*1574 FILLER_8_311
*1575 FILLER_8_319
*1576 FILLER_8_327
*1577 FILLER_8_329
*1578 FILLER_8_331
*1579 FILLER_8_339
*1580 FILLER_8_347
*1581 FILLER_8_355
*1582 FILLER_8_363
*1583 FILLER_8_371
*1584 FILLER_8_379
*1585 FILLER_8_387
*1586 FILLER_8_389
*1587 FILLER_8_391
*1588 FILLER_8_399
*1589 FILLER_8_407
*1590 FILLER_8_415
*1591 FILLER_8_423
*1592 FILLER_8_431
*1593 FILLER_8_439
*1594 FILLER_8_447
*1595 FILLER_8_449
*1596 FILLER_8_451
*1597 FILLER_8_459
*1598 FILLER_8_467
*1599 FILLER_8_475
*1600 FILLER_8_483
*1601 FILLER_8_491
*1602 FILLER_8_499
*1603 FILLER_8_503
*1604 FILLER_8_505
*1605 FILLER_9_4
*1606 FILLER_9_12
*1607 FILLER_9_20
*1608 FILLER_9_28
*1609 FILLER_9_36
*1610 FILLER_9_44
*1611 FILLER_9_52
*1612 FILLER_9_61
*1613 FILLER_9_69
*1614 FILLER_9_77
*1615 FILLER_9_85
*1616 FILLER_9_93
*1617 FILLER_9_101
*1618 FILLER_9_109
*1619 FILLER_9_117
*1620 FILLER_9_119
*1621 FILLER_9_121
*1622 FILLER_9_129
*1623 FILLER_9_137
*1624 FILLER_9_145
*1625 FILLER_9_153
*1626 FILLER_9_161
*1627 FILLER_9_169
*1628 FILLER_9_177
*1629 FILLER_9_179
*1630 FILLER_9_181
*1631 FILLER_9_189
*1632 FILLER_9_197
*1633 FILLER_9_205
*1634 FILLER_9_213
*1635 FILLER_9_221
*1636 FILLER_9_229
*1637 FILLER_9_237
*1638 FILLER_9_239
*1639 FILLER_9_241
*1640 FILLER_9_249
*1641 FILLER_9_257
*1642 FILLER_9_265
*1643 FILLER_9_273
*1644 FILLER_9_281
*1645 FILLER_9_289
*1646 FILLER_9_297
*1647 FILLER_9_299
*1648 FILLER_9_301
*1649 FILLER_9_309
*1650 FILLER_9_317
*1651 FILLER_9_325
*1652 FILLER_9_333
*1653 FILLER_9_341
*1654 FILLER_9_349
*1655 FILLER_9_357
*1656 FILLER_9_359
*1657 FILLER_9_361
*1658 FILLER_9_369
*1659 FILLER_9_377
*1660 FILLER_9_385
*1661 FILLER_9_393
*1662 FILLER_9_401
*1663 FILLER_9_409
*1664 FILLER_9_417
*1665 FILLER_9_419
*1666 FILLER_9_421
*1667 FILLER_9_429
*1668 FILLER_9_437
*1669 FILLER_9_445
*1670 FILLER_9_453
*1671 FILLER_9_461
*1672 FILLER_9_469
*1673 FILLER_9_477
*1674 FILLER_9_479
*1675 FILLER_9_481
*1676 FILLER_9_489
*1677 FILLER_9_497
*1678 FILLER_9_505
*1679 FILLER_10_4
*1680 FILLER_10_12
*1681 FILLER_10_20
*1682 FILLER_10_28
*1683 FILLER_10_31
*1684 FILLER_10_39
*1685 FILLER_10_47
*1686 FILLER_10_55
*1687 FILLER_10_63
*1688 FILLER_10_71
*1689 FILLER_10_79
*1690 FILLER_10_87
*1691 FILLER_10_89
*1692 FILLER_10_91
*1693 FILLER_10_99
*1694 FILLER_10_107
*1695 FILLER_10_115
*1696 FILLER_10_123
*1697 FILLER_10_131
*1698 FILLER_10_139
*1699 FILLER_10_147
*1700 FILLER_10_149
*1701 FILLER_10_151
*1702 FILLER_10_159
*1703 FILLER_10_167
*1704 FILLER_10_175
*1705 FILLER_10_183
*1706 FILLER_10_191
*1707 FILLER_10_199
*1708 FILLER_10_207
*1709 FILLER_10_209
*1710 FILLER_10_211
*1711 FILLER_10_219
*1712 FILLER_10_227
*1713 FILLER_10_235
*1714 FILLER_10_243
*1715 FILLER_10_251
*1716 FILLER_10_259
*1717 FILLER_10_267
*1718 FILLER_10_269
*1719 FILLER_10_271
*1720 FILLER_10_279
*1721 FILLER_10_287
*1722 FILLER_10_295
*1723 FILLER_10_303
*1724 FILLER_10_311
*1725 FILLER_10_319
*1726 FILLER_10_327
*1727 FILLER_10_329
*1728 FILLER_10_331
*1729 FILLER_10_339
*1730 FILLER_10_347
*1731 FILLER_10_355
*1732 FILLER_10_363
*1733 FILLER_10_371
*1734 FILLER_10_379
*1735 FILLER_10_387
*1736 FILLER_10_389
*1737 FILLER_10_391
*1738 FILLER_10_399
*1739 FILLER_10_407
*1740 FILLER_10_415
*1741 FILLER_10_423
*1742 FILLER_10_431
*1743 FILLER_10_439
*1744 FILLER_10_447
*1745 FILLER_10_449
*1746 FILLER_10_451
*1747 FILLER_10_459
*1748 FILLER_10_467
*1749 FILLER_10_475
*1750 FILLER_10_483
*1751 FILLER_10_491
*1752 FILLER_10_499
*1753 FILLER_10_503
*1754 FILLER_10_505
*1755 FILLER_11_4
*1756 FILLER_11_12
*1757 FILLER_11_20
*1758 FILLER_11_28
*1759 FILLER_11_36
*1760 FILLER_11_44
*1761 FILLER_11_52
*1762 FILLER_11_61
*1763 FILLER_11_69
*1764 FILLER_11_77
*1765 FILLER_11_85
*1766 FILLER_11_93
*1767 FILLER_11_101
*1768 FILLER_11_109
*1769 FILLER_11_117
*1770 FILLER_11_119
*1771 FILLER_11_121
*1772 FILLER_11_129
*1773 FILLER_11_137
*1774 FILLER_11_145
*1775 FILLER_11_153
*1776 FILLER_11_161
*1777 FILLER_11_169
*1778 FILLER_11_177
*1779 FILLER_11_179
*1780 FILLER_11_181
*1781 FILLER_11_189
*1782 FILLER_11_197
*1783 FILLER_11_205
*1784 FILLER_11_213
*1785 FILLER_11_221
*1786 FILLER_11_229
*1787 FILLER_11_237
*1788 FILLER_11_239
*1789 FILLER_11_241
*1790 FILLER_11_249
*1791 FILLER_11_257
*1792 FILLER_11_265
*1793 FILLER_11_273
*1794 FILLER_11_281
*1795 FILLER_11_289
*1796 FILLER_11_297
*1797 FILLER_11_299
*1798 FILLER_11_301
*1799 FILLER_11_309
*1800 FILLER_11_317
*1801 FILLER_11_325
*1802 FILLER_11_333
*1803 FILLER_11_341
*1804 FILLER_11_349
*1805 FILLER_11_357
*1806 FILLER_11_359
*1807 FILLER_11_361
*1808 FILLER_11_369
*1809 FILLER_11_377
*1810 FILLER_11_385
*1811 FILLER_11_393
*1812 FILLER_11_401
*1813 FILLER_11_409
*1814 FILLER_11_417
*1815 FILLER_11_419
*1816 FILLER_11_421
*1817 FILLER_11_429
*1818 FILLER_11_437
*1819 FILLER_11_445
*1820 FILLER_11_453
*1821 FILLER_11_461
*1822 FILLER_11_469
*1823 FILLER_11_477
*1824 FILLER_11_479
*1825 FILLER_11_481
*1826 FILLER_11_489
*1827 FILLER_11_497
*1828 FILLER_11_505
*1829 FILLER_12_4
*1830 FILLER_12_12
*1831 FILLER_12_20
*1832 FILLER_12_28
*1833 FILLER_12_31
*1834 FILLER_12_39
*1835 FILLER_12_47
*1836 FILLER_12_55
*1837 FILLER_12_63
*1838 FILLER_12_71
*1839 FILLER_12_79
*1840 FILLER_12_87
*1841 FILLER_12_89
*1842 FILLER_12_91
*1843 FILLER_12_99
*1844 FILLER_12_107
*1845 FILLER_12_115
*1846 FILLER_12_123
*1847 FILLER_12_131
*1848 FILLER_12_139
*1849 FILLER_12_147
*1850 FILLER_12_149
*1851 FILLER_12_151
*1852 FILLER_12_159
*1853 FILLER_12_167
*1854 FILLER_12_175
*1855 FILLER_12_183
*1856 FILLER_12_191
*1857 FILLER_12_199
*1858 FILLER_12_207
*1859 FILLER_12_209
*1860 FILLER_12_211
*1861 FILLER_12_219
*1862 FILLER_12_227
*1863 FILLER_12_235
*1864 FILLER_12_243
*1865 FILLER_12_251
*1866 FILLER_12_259
*1867 FILLER_12_267
*1868 FILLER_12_269
*1869 FILLER_12_271