* NGSPICE file created from tempsenseInst_error.ext - technology: sky130A

.subckt HEADER VIN sky130_fd_sc_hd__tap_1_1/VPB a_508_138# VGND VNB VPWR sky130_fd_sc_hd__tap_1_0/VPB
X0 a_508_138# VGND VPWR VNB sky130_fd_pr__nfet_03v3_nvt ad=1.1445e+12p pd=1.167e+07u as=3.92e+11p ps=3.92e+06u w=700000u l=500000u
X1 VIN VGND a_508_138# VNB sky130_fd_pr__nfet_03v3_nvt ad=3.92e+11p pd=3.92e+06u as=0p ps=0u w=700000u l=500000u
X2 VPWR VGND a_508_138# VNB sky130_fd_pr__nfet_03v3_nvt ad=0p pd=0u as=0p ps=0u w=700000u l=500000u
X3 a_508_138# VGND VPWR VNB sky130_fd_pr__nfet_03v3_nvt ad=0p pd=0u as=0p ps=0u w=700000u l=500000u
X4 a_508_138# VGND VIN VNB sky130_fd_pr__nfet_03v3_nvt ad=0p pd=0u as=0p ps=0u w=700000u l=500000u
X5 VPWR VGND a_508_138# VNB sky130_fd_pr__nfet_03v3_nvt ad=0p pd=0u as=0p ps=0u w=700000u l=500000u
X6 a_508_138# VGND VIN VNB sky130_fd_pr__nfet_03v3_nvt ad=0p pd=0u as=0p ps=0u w=700000u l=500000u
X7 VIN VGND a_508_138# VNB sky130_fd_pr__nfet_03v3_nvt ad=0p pd=0u as=0p ps=0u w=700000u l=500000u
C0 sky130_fd_sc_hd__tap_1_0/VPB VPWR 0.14fF
C1 VPWR VGND 0.98fF
C2 sky130_fd_sc_hd__tap_1_1/VPB VPWR 0.10fF
C3 a_508_138# VPWR 0.25fF
C4 sky130_fd_sc_hd__tap_1_0/VPB VGND 0.03fF
C5 VPWR VIN 0.20fF
C6 sky130_fd_sc_hd__tap_1_1/VPB VGND 0.02fF
C7 a_508_138# VGND 1.55fF
C8 sky130_fd_sc_hd__tap_1_1/VPB a_508_138# 0.00fF
C9 sky130_fd_sc_hd__tap_1_0/VPB VIN 0.00fF
C10 VGND VIN 0.90fF
C11 sky130_fd_sc_hd__tap_1_1/VPB VIN 0.00fF
C12 a_508_138# VIN 0.50fF
C13 VIN VNB 0.45fF
C14 a_508_138# VNB -1.70fF
C15 sky130_fd_sc_hd__tap_1_0/VPB VNB 0.30fF
C16 VGND VNB 1.85fF
C17 VPWR VNB 0.88fF
C18 sky130_fd_sc_hd__tap_1_1/VPB VNB 0.30fF
.ends

.subckt sky130_fd_sc_hd__decap_4 VGND VPWR VNB VPB
X0 VPWR VGND VPWR VPB sky130_fd_pr__pfet_01v8_hvt ad=4.524e+11p pd=4.52e+06u as=0p ps=0u w=870000u l=1.05e+06u
X1 VGND VPWR VGND VNB sky130_fd_pr__nfet_01v8 ad=2.86e+11p pd=3.24e+06u as=0p ps=0u w=550000u l=1.05e+06u
C0 VPWR VGND 0.65fF
C1 VPWR VPB 0.12fF
C2 VGND VPB 0.22fF
C3 VPWR VNB 0.50fF
C4 VGND VNB 0.37fF
C5 VPB VNB 0.43fF
.ends

.subckt sky130_fd_sc_hd__or3_1 VPWR VGND B C A X a_29_53# a_183_297# VNB VPB a_111_297#
X0 X a_29_53# VPWR VPB sky130_fd_pr__pfet_01v8_hvt ad=2.8e+11p pd=2.56e+06u as=2.965e+11p ps=2.68e+06u w=1e+06u l=150000u
X1 a_111_297# C a_29_53# VPB sky130_fd_pr__pfet_01v8_hvt ad=8.82e+10p pd=1.26e+06u as=1.092e+11p ps=1.36e+06u w=420000u l=150000u
X2 X a_29_53# VGND VNB sky130_fd_pr__nfet_01v8 ad=1.82e+11p pd=1.86e+06u as=3.1715e+11p ps=3.36e+06u w=650000u l=150000u
X3 a_183_297# B a_111_297# VPB sky130_fd_pr__pfet_01v8_hvt ad=1.386e+11p pd=1.5e+06u as=0p ps=0u w=420000u l=150000u
X4 VPWR A a_183_297# VPB sky130_fd_pr__pfet_01v8_hvt ad=0p pd=0u as=0p ps=0u w=420000u l=150000u
X5 a_29_53# B VGND VNB sky130_fd_pr__nfet_01v8 ad=2.226e+11p pd=2.74e+06u as=0p ps=0u w=420000u l=150000u
X6 VGND C a_29_53# VNB sky130_fd_pr__nfet_01v8 ad=0p pd=0u as=0p ps=0u w=420000u l=150000u
X7 VGND A a_29_53# VNB sky130_fd_pr__nfet_01v8 ad=0p pd=0u as=0p ps=0u w=420000u l=150000u
C0 a_183_297# VGND 0.00fF
C1 A a_29_53# 0.31fF
C2 C A 0.04fF
C3 X VGND 0.04fF
C4 X VPB 0.02fF
C5 a_29_53# a_111_297# 0.01fF
C6 VPWR a_183_297# 0.00fF
C7 VPB VGND 0.01fF
C8 VPWR X 0.09fF
C9 VPWR VGND 0.05fF
C10 A a_183_297# 0.00fF
C11 X A 0.00fF
C12 VPWR VPB 0.08fF
C13 A VGND 0.02fF
C14 VPB A 0.05fF
C15 VGND a_111_297# 0.00fF
C16 VPWR A 0.01fF
C17 VPWR a_111_297# 0.00fF
C18 B a_29_53# 0.14fF
C19 C B 0.06fF
C20 A a_111_297# 0.00fF
C21 B X 0.00fF
C22 B VGND 0.02fF
C23 B VPB 0.17fF
C24 VPWR B 0.19fF
C25 B A 0.08fF
C26 C a_29_53# 0.10fF
C27 a_29_53# a_183_297# 0.01fF
C28 X a_29_53# 0.09fF
C29 C X 0.00fF
C30 a_29_53# VGND 0.25fF
C31 C VGND 0.02fF
C32 VPB a_29_53# 0.08fF
C33 C VPB 0.06fF
C34 VPWR a_29_53# 0.12fF
C35 C VPWR 0.01fF
C36 VGND VNB 0.26fF
C37 X VNB 0.05fF
C38 A VNB 0.09fF
C39 C VNB 0.14fF
C40 B VNB -0.10fF
C41 VPWR VNB 0.20fF
C42 VPB VNB 0.52fF
C43 a_29_53# VNB -0.14fF
.ends

.subckt sky130_fd_sc_hd__inv_1 VGND VPWR A Y VNB VPB
X0 Y A VGND VNB sky130_fd_pr__nfet_01v8 ad=1.69e+11p pd=1.82e+06u as=1.69e+11p ps=1.82e+06u w=650000u l=150000u
X1 Y A VPWR VPB sky130_fd_pr__pfet_01v8_hvt ad=2.6e+11p pd=2.52e+06u as=2.6e+11p ps=2.52e+06u w=1e+06u l=150000u
C0 Y VGND 0.10fF
C1 VPB Y 0.02fF
C2 VPB VGND 0.01fF
C3 VPWR A 0.05fF
C4 A Y 0.05fF
C5 A VGND 0.04fF
C6 VPB A 0.07fF
C7 VPWR Y 0.13fF
C8 VPWR VGND 0.03fF
C9 VPWR VPB 0.06fF
C10 VGND VNB 0.24fF
C11 Y VNB 0.08fF
C12 VPWR VNB 0.21fF
C13 A VNB 0.12fF
C14 VPB VNB 0.34fF
.ends

.subckt sky130_fd_sc_hd__nor3_1 VGND VPWR C B A Y a_193_297# VNB VPB a_109_297#
X0 VPWR A a_193_297# VPB sky130_fd_pr__pfet_01v8_hvt ad=2.6e+11p pd=2.52e+06u as=2.7e+11p ps=2.54e+06u w=1e+06u l=150000u
X1 a_193_297# B a_109_297# VPB sky130_fd_pr__pfet_01v8_hvt ad=0p pd=0u as=2.7e+11p ps=2.54e+06u w=1e+06u l=150000u
X2 Y B VGND VNB sky130_fd_pr__nfet_01v8 ad=3.445e+11p pd=3.66e+06u as=3.445e+11p ps=3.66e+06u w=650000u l=150000u
X3 VGND A Y VNB sky130_fd_pr__nfet_01v8 ad=0p pd=0u as=0p ps=0u w=650000u l=150000u
X4 a_109_297# C Y VPB sky130_fd_pr__pfet_01v8_hvt ad=0p pd=0u as=2.6e+11p ps=2.52e+06u w=1e+06u l=150000u
X5 VGND C Y VNB sky130_fd_pr__nfet_01v8 ad=0p pd=0u as=0p ps=0u w=650000u l=150000u
C0 a_109_297# Y 0.02fF
C1 C B 0.10fF
C2 VPWR A 0.06fF
C3 VPB A 0.06fF
C4 a_193_297# B 0.00fF
C5 a_109_297# VPWR 0.00fF
C6 C A 0.00fF
C7 B A 0.06fF
C8 Y VGND 0.16fF
C9 a_193_297# A 0.00fF
C10 a_109_297# B 0.01fF
C11 VGND VPWR 0.04fF
C12 VPB VGND 0.01fF
C13 a_109_297# A 0.00fF
C14 Y VPWR 0.21fF
C15 VPB Y 0.04fF
C16 VGND C 0.02fF
C17 VGND B 0.02fF
C18 VGND a_193_297# 0.00fF
C19 VPB VPWR 0.05fF
C20 Y C 0.11fF
C21 Y B 0.22fF
C22 Y a_193_297# 0.02fF
C23 VGND A 0.06fF
C24 C VPWR 0.01fF
C25 VPWR B 0.01fF
C26 VPB C 0.05fF
C27 VPB B 0.05fF
C28 a_109_297# VGND 0.00fF
C29 a_193_297# VPWR 0.00fF
C30 Y A 0.12fF
C31 VGND VNB 0.22fF
C32 VPWR VNB 0.21fF
C33 Y VNB -0.26fF
C34 A VNB 0.14fF
C35 B VNB 0.06fF
C36 C VNB 0.13fF
C37 VPB VNB 0.43fF
.ends

.subckt sky130_fd_sc_hd__dfrtp_1 VGND VPWR CLK D RESET_B Q a_1462_47# a_543_47# VNB
+ VPB a_651_413# a_193_47# a_805_47# a_448_47# a_639_47# a_1283_21# a_761_289# a_1108_47#
+ a_1217_47# a_1270_413# a_27_47#
X0 a_1217_47# a_27_47# a_1108_47# VNB sky130_fd_pr__nfet_01v8 ad=1.338e+11p pd=1.5e+06u as=1.422e+11p ps=1.51e+06u w=360000u l=150000u
X1 a_805_47# a_761_289# a_639_47# VNB sky130_fd_pr__nfet_01v8 ad=8.82e+10p pd=1.26e+06u as=2.802e+11p ps=2.2e+06u w=420000u l=150000u
X2 a_1108_47# a_193_47# a_761_289# VNB sky130_fd_pr__nfet_01v8 ad=0p pd=0u as=1.998e+11p ps=1.97e+06u w=360000u l=150000u
X3 a_1283_21# a_1108_47# a_1462_47# VNB sky130_fd_pr__nfet_01v8 ad=1.092e+11p pd=1.36e+06u as=1.281e+11p ps=1.45e+06u w=420000u l=150000u
X4 a_651_413# a_27_47# a_543_47# VPB sky130_fd_pr__pfet_01v8_hvt ad=3.402e+11p pd=3.3e+06u as=1.449e+11p ps=1.53e+06u w=420000u l=150000u
X5 VGND RESET_B a_805_47# VNB sky130_fd_pr__nfet_01v8 ad=1.0617e+12p pd=9.62e+06u as=0p ps=0u w=420000u l=150000u
X6 Q a_1283_21# VPWR VPB sky130_fd_pr__pfet_01v8_hvt ad=2.6e+11p pd=2.52e+06u as=1.2195e+12p ps=1.255e+07u w=1e+06u l=150000u
X7 VPWR CLK a_27_47# VPB sky130_fd_pr__pfet_01v8_hvt ad=0p pd=0u as=1.664e+11p ps=1.8e+06u w=640000u l=150000u
X8 a_448_47# D VPWR VPB sky130_fd_pr__pfet_01v8_hvt ad=1.302e+11p pd=1.46e+06u as=0p ps=0u w=420000u l=150000u
X9 a_761_289# a_543_47# VGND VNB sky130_fd_pr__nfet_01v8 ad=0p pd=0u as=0p ps=0u w=640000u l=150000u
X10 a_193_47# a_27_47# VGND VNB sky130_fd_pr__nfet_01v8 ad=1.092e+11p pd=1.36e+06u as=0p ps=0u w=420000u l=150000u
X11 a_1108_47# a_27_47# a_761_289# VPB sky130_fd_pr__pfet_01v8_hvt ad=1.176e+11p pd=1.4e+06u as=2.583e+11p ps=2.37e+06u w=420000u l=150000u
X12 a_543_47# a_27_47# a_448_47# VNB sky130_fd_pr__nfet_01v8 ad=1.188e+11p pd=1.38e+06u as=1.32e+11p ps=1.49e+06u w=360000u l=150000u
X13 a_1462_47# RESET_B VGND VNB sky130_fd_pr__nfet_01v8 ad=0p pd=0u as=0p ps=0u w=420000u l=150000u
X14 a_543_47# a_193_47# a_448_47# VPB sky130_fd_pr__pfet_01v8_hvt ad=0p pd=0u as=0p ps=0u w=420000u l=150000u
X15 a_448_47# D VGND VNB sky130_fd_pr__nfet_01v8 ad=0p pd=0u as=0p ps=0u w=420000u l=150000u
X16 VPWR a_1283_21# a_1270_413# VPB sky130_fd_pr__pfet_01v8_hvt ad=0p pd=0u as=1.134e+11p ps=1.38e+06u w=420000u l=150000u
X17 VPWR a_1108_47# a_1283_21# VPB sky130_fd_pr__pfet_01v8_hvt ad=0p pd=0u as=1.134e+11p ps=1.38e+06u w=420000u l=150000u
X18 a_1270_413# a_193_47# a_1108_47# VPB sky130_fd_pr__pfet_01v8_hvt ad=0p pd=0u as=0p ps=0u w=420000u l=150000u
X19 a_193_47# a_27_47# VPWR VPB sky130_fd_pr__pfet_01v8_hvt ad=1.664e+11p pd=1.8e+06u as=0p ps=0u w=640000u l=150000u
X20 a_1283_21# RESET_B VPWR VPB sky130_fd_pr__pfet_01v8_hvt ad=0p pd=0u as=0p ps=0u w=420000u l=150000u
X21 VPWR a_761_289# a_651_413# VPB sky130_fd_pr__pfet_01v8_hvt ad=0p pd=0u as=0p ps=0u w=420000u l=150000u
X22 Q a_1283_21# VGND VNB sky130_fd_pr__nfet_01v8 ad=1.69e+11p pd=1.82e+06u as=0p ps=0u w=650000u l=150000u
X23 a_639_47# a_193_47# a_543_47# VNB sky130_fd_pr__nfet_01v8 ad=0p pd=0u as=0p ps=0u w=360000u l=150000u
X24 VGND a_1283_21# a_1217_47# VNB sky130_fd_pr__nfet_01v8 ad=0p pd=0u as=0p ps=0u w=420000u l=150000u
X25 a_651_413# RESET_B VPWR VPB sky130_fd_pr__pfet_01v8_hvt ad=0p pd=0u as=0p ps=0u w=420000u l=150000u
X26 VGND CLK a_27_47# VNB sky130_fd_pr__nfet_01v8 ad=0p pd=0u as=1.092e+11p ps=1.36e+06u w=420000u l=150000u
X27 a_761_289# a_543_47# VPWR VPB sky130_fd_pr__pfet_01v8_hvt ad=0p pd=0u as=0p ps=0u w=840000u l=150000u
C0 CLK VGND 0.03fF
C1 a_1283_21# VGND 0.39fF
C2 D VPWR 0.13fF
C3 a_1108_47# VPWR 0.41fF
C4 a_193_47# a_761_289# 0.23fF
C5 VPB VPWR 0.58fF
C6 a_27_47# VPWR 0.22fF
C7 D a_543_47# 0.00fF
C8 a_1108_47# a_543_47# 0.00fF
C9 a_1462_47# RESET_B 0.00fF
C10 a_639_47# a_1283_21# 0.00fF
C11 a_1283_21# Q 0.06fF
C12 VPB a_543_47# 0.20fF
C13 a_27_47# a_543_47# 0.21fF
C14 a_193_47# RESET_B 0.04fF
C15 D VGND 0.09fF
C16 a_1108_47# VGND 0.24fF
C17 a_761_289# RESET_B 0.18fF
C18 a_1270_413# a_1108_47# 0.01fF
C19 VPB VGND 0.06fF
C20 a_27_47# VGND 0.37fF
C21 a_805_47# a_1283_21# 0.00fF
C22 a_193_47# VPWR 0.45fF
C23 D Q 0.00fF
C24 a_1108_47# Q 0.00fF
C25 a_651_413# a_1283_21# 0.00fF
C26 a_761_289# VPWR 0.16fF
C27 a_27_47# a_639_47# 0.00fF
C28 VPB Q 0.02fF
C29 a_27_47# Q 0.00fF
C30 a_193_47# a_543_47# 0.25fF
C31 a_761_289# a_543_47# 0.26fF
C32 a_1462_47# VGND 0.01fF
C33 a_1217_47# a_1283_21# 0.00fF
C34 CLK a_448_47# 0.00fF
C35 a_193_47# VGND 0.12fF
C36 a_1283_21# a_448_47# 0.00fF
C37 RESET_B VPWR 0.10fF
C38 a_761_289# VGND 0.11fF
C39 a_1270_413# a_193_47# 0.00fF
C40 a_1270_413# a_761_289# 0.00fF
C41 a_543_47# RESET_B 0.19fF
C42 a_651_413# a_1108_47# 0.00fF
C43 a_1462_47# Q 0.00fF
C44 a_651_413# VPB 0.03fF
C45 a_27_47# a_651_413# 0.00fF
C46 a_639_47# a_193_47# 0.00fF
C47 a_193_47# Q 0.00fF
C48 RESET_B VGND 0.34fF
C49 a_1217_47# a_1108_47# 0.01fF
C50 a_639_47# a_761_289# 0.00fF
C51 a_761_289# Q 0.00fF
C52 CLK a_1283_21# 0.00fF
C53 a_1270_413# RESET_B 0.00fF
C54 D a_448_47# 0.17fF
C55 a_27_47# a_1217_47# 0.00fF
C56 a_448_47# a_1108_47# 0.00fF
C57 a_543_47# VPWR 0.22fF
C58 a_448_47# VPB 0.03fF
C59 a_27_47# a_448_47# 0.11fF
C60 a_639_47# RESET_B 0.00fF
C61 RESET_B Q 0.00fF
C62 VPWR VGND 0.05fF
C63 a_805_47# a_761_289# 0.00fF
C64 a_1270_413# VPWR 0.00fF
C65 a_651_413# a_193_47# 0.05fF
C66 a_543_47# VGND 0.22fF
C67 D CLK 0.00fF
C68 a_651_413# a_761_289# 0.12fF
C69 CLK a_1108_47# 0.00fF
C70 D a_1283_21# 0.00fF
C71 a_1283_21# a_1108_47# 0.30fF
C72 CLK VPB 0.08fF
C73 a_27_47# CLK 0.24fF
C74 a_1217_47# a_193_47# 0.00fF
C75 a_1283_21# VPB 0.22fF
C76 a_27_47# a_1283_21# 0.05fF
C77 a_805_47# RESET_B 0.00fF
C78 VPWR Q 0.16fF
C79 a_1217_47# a_761_289# 0.00fF
C80 a_448_47# a_193_47# 0.07fF
C81 a_639_47# a_543_47# 0.02fF
C82 a_651_413# RESET_B 0.02fF
C83 a_543_47# Q 0.00fF
C84 a_448_47# a_761_289# 0.00fF
C85 a_639_47# VGND 0.03fF
C86 a_1217_47# RESET_B 0.00fF
C87 VGND Q 0.08fF
C88 D a_1108_47# 0.00fF
C89 a_1270_413# Q 0.00fF
C90 a_448_47# RESET_B 0.00fF
C91 a_1462_47# a_1283_21# 0.02fF
C92 D VPB 0.18fF
C93 D a_27_47# 0.17fF
C94 VPB a_1108_47# 0.19fF
C95 a_27_47# a_1108_47# 0.14fF
C96 a_805_47# a_543_47# 0.00fF
C97 a_651_413# VPWR 0.23fF
C98 CLK a_193_47# 0.01fF
C99 a_1283_21# a_193_47# 0.04fF
C100 a_27_47# VPB 0.50fF
C101 CLK a_761_289# 0.00fF
C102 a_651_413# a_543_47# 0.05fF
C103 a_1283_21# a_761_289# 0.00fF
C104 a_639_47# Q 0.00fF
C105 a_805_47# VGND 0.01fF
C106 a_448_47# VPWR 0.09fF
C107 CLK RESET_B 0.00fF
C108 a_448_47# a_543_47# 0.05fF
C109 a_1283_21# RESET_B 0.30fF
C110 D a_193_47# 0.22fF
C111 a_193_47# a_1108_47# 0.14fF
C112 a_805_47# Q 0.00fF
C113 a_1217_47# VGND 0.01fF
C114 D a_761_289# 0.00fF
C115 a_1108_47# a_761_289# 0.05fF
C116 a_193_47# VPB 0.27fF
C117 a_27_47# a_193_47# 0.98fF
C118 a_448_47# VGND 0.13fF
C119 a_651_413# Q 0.00fF
C120 VPB a_761_289# 0.18fF
C121 a_27_47# a_761_289# 0.14fF
C122 CLK VPWR 0.03fF
C123 a_1283_21# VPWR 0.35fF
C124 CLK a_543_47# 0.00fF
C125 D RESET_B 0.00fF
C126 a_1217_47# Q 0.00fF
C127 a_1108_47# RESET_B 0.27fF
C128 a_1283_21# a_543_47# 0.00fF
C129 a_639_47# a_448_47# 0.00fF
C130 a_448_47# Q 0.00fF
C131 VPB RESET_B 0.21fF
C132 a_27_47# RESET_B 0.37fF
C133 Q VNB 0.05fF
C134 VGND VNB -0.43fF
C135 VPWR VNB -1.65fF
C136 RESET_B VNB -0.03fF
C137 D VNB 0.01fF
C138 CLK VNB 0.17fF
C139 VPB VNB 1.85fF
C140 a_651_413# VNB -0.19fF
C141 a_448_47# VNB -0.11fF
C142 a_1108_47# VNB -0.40fF
C143 a_1283_21# VNB -0.14fF
C144 a_543_47# VNB -0.28fF
C145 a_761_289# VNB -0.15fF
C146 a_193_47# VNB -0.13fF
C147 a_27_47# VNB -0.55fF
.ends

.subckt sky130_fd_sc_hd__a221oi_4 VPWR VGND C1 Y B2 B1 A2 A1 a_1241_47# VNB VPB a_453_47#
+ a_27_297# a_471_297#
X0 Y A1 a_1241_47# VNB sky130_fd_pr__nfet_01v8 ad=1.053e+12p pd=1.104e+07u as=7.02e+11p ps=7.36e+06u w=650000u l=150000u
X1 a_453_47# B2 VGND VNB sky130_fd_pr__nfet_01v8 ad=1.027e+12p pd=8.36e+06u as=1.2935e+12p ps=1.308e+07u w=650000u l=150000u
X2 Y B1 a_453_47# VNB sky130_fd_pr__nfet_01v8 ad=0p pd=0u as=0p ps=0u w=650000u l=150000u
X3 Y A1 a_1241_47# VNB sky130_fd_pr__nfet_01v8 ad=0p pd=0u as=0p ps=0u w=650000u l=150000u
X4 Y C1 a_27_297# VPB sky130_fd_pr__pfet_01v8_hvt ad=5.4e+11p pd=5.08e+06u as=1.89e+12p ps=1.778e+07u w=1e+06u l=150000u
X5 a_471_297# A2 VPWR VPB sky130_fd_pr__pfet_01v8_hvt ad=2.525e+12p pd=2.305e+07u as=1.08e+12p ps=1.016e+07u w=1e+06u l=150000u
X6 Y B1 a_453_47# VNB sky130_fd_pr__nfet_01v8 ad=0p pd=0u as=0p ps=0u w=650000u l=150000u
X7 VGND A2 a_1241_47# VNB sky130_fd_pr__nfet_01v8 ad=0p pd=0u as=0p ps=0u w=650000u l=150000u
X8 Y C1 VGND VNB sky130_fd_pr__nfet_01v8 ad=0p pd=0u as=0p ps=0u w=650000u l=150000u
X9 a_27_297# C1 Y VPB sky130_fd_pr__pfet_01v8_hvt ad=0p pd=0u as=0p ps=0u w=1e+06u l=150000u
X10 VPWR A2 a_471_297# VPB sky130_fd_pr__pfet_01v8_hvt ad=0p pd=0u as=0p ps=0u w=1e+06u l=150000u
X11 a_453_47# B1 Y VNB sky130_fd_pr__nfet_01v8 ad=0p pd=0u as=0p ps=0u w=650000u l=150000u
X12 a_471_297# B2 a_27_297# VPB sky130_fd_pr__pfet_01v8_hvt ad=0p pd=0u as=0p ps=0u w=1e+06u l=150000u
X13 VGND B2 a_453_47# VNB sky130_fd_pr__nfet_01v8 ad=0p pd=0u as=0p ps=0u w=650000u l=150000u
X14 a_1241_47# A1 Y VNB sky130_fd_pr__nfet_01v8 ad=0p pd=0u as=0p ps=0u w=650000u l=150000u
X15 a_27_297# B2 a_471_297# VPB sky130_fd_pr__pfet_01v8_hvt ad=0p pd=0u as=0p ps=0u w=1e+06u l=150000u
X16 a_453_47# B1 Y VNB sky130_fd_pr__nfet_01v8 ad=0p pd=0u as=0p ps=0u w=650000u l=150000u
X17 a_1241_47# A1 Y VNB sky130_fd_pr__nfet_01v8 ad=0p pd=0u as=0p ps=0u w=650000u l=150000u
X18 VGND C1 Y VNB sky130_fd_pr__nfet_01v8 ad=0p pd=0u as=0p ps=0u w=650000u l=150000u
X19 a_1241_47# A2 VGND VNB sky130_fd_pr__nfet_01v8 ad=0p pd=0u as=0p ps=0u w=650000u l=150000u
X20 Y C1 VGND VNB sky130_fd_pr__nfet_01v8 ad=0p pd=0u as=0p ps=0u w=650000u l=150000u
X21 VGND C1 Y VNB sky130_fd_pr__nfet_01v8 ad=0p pd=0u as=0p ps=0u w=650000u l=150000u
X22 VPWR A2 a_471_297# VPB sky130_fd_pr__pfet_01v8_hvt ad=0p pd=0u as=0p ps=0u w=1e+06u l=150000u
X23 a_471_297# B2 a_27_297# VPB sky130_fd_pr__pfet_01v8_hvt ad=0p pd=0u as=0p ps=0u w=1e+06u l=150000u
X24 a_471_297# A2 VPWR VPB sky130_fd_pr__pfet_01v8_hvt ad=0p pd=0u as=0p ps=0u w=1e+06u l=150000u
X25 a_471_297# B1 a_27_297# VPB sky130_fd_pr__pfet_01v8_hvt ad=0p pd=0u as=0p ps=0u w=1e+06u l=150000u
X26 VPWR A1 a_471_297# VPB sky130_fd_pr__pfet_01v8_hvt ad=0p pd=0u as=0p ps=0u w=1e+06u l=150000u
X27 Y C1 a_27_297# VPB sky130_fd_pr__pfet_01v8_hvt ad=0p pd=0u as=0p ps=0u w=1e+06u l=150000u
X28 a_27_297# B1 a_471_297# VPB sky130_fd_pr__pfet_01v8_hvt ad=0p pd=0u as=0p ps=0u w=1e+06u l=150000u
X29 VGND A2 a_1241_47# VNB sky130_fd_pr__nfet_01v8 ad=0p pd=0u as=0p ps=0u w=650000u l=150000u
X30 a_471_297# A1 VPWR VPB sky130_fd_pr__pfet_01v8_hvt ad=0p pd=0u as=0p ps=0u w=1e+06u l=150000u
X31 a_27_297# B1 a_471_297# VPB sky130_fd_pr__pfet_01v8_hvt ad=0p pd=0u as=0p ps=0u w=1e+06u l=150000u
X32 a_1241_47# A2 VGND VNB sky130_fd_pr__nfet_01v8 ad=0p pd=0u as=0p ps=0u w=650000u l=150000u
X33 a_471_297# B1 a_27_297# VPB sky130_fd_pr__pfet_01v8_hvt ad=0p pd=0u as=0p ps=0u w=1e+06u l=150000u
X34 VPWR A1 a_471_297# VPB sky130_fd_pr__pfet_01v8_hvt ad=0p pd=0u as=0p ps=0u w=1e+06u l=150000u
X35 a_27_297# B2 a_471_297# VPB sky130_fd_pr__pfet_01v8_hvt ad=0p pd=0u as=0p ps=0u w=1e+06u l=150000u
X36 a_471_297# A1 VPWR VPB sky130_fd_pr__pfet_01v8_hvt ad=0p pd=0u as=0p ps=0u w=1e+06u l=150000u
X37 a_27_297# C1 Y VPB sky130_fd_pr__pfet_01v8_hvt ad=0p pd=0u as=0p ps=0u w=1e+06u l=150000u
X38 a_453_47# B2 VGND VNB sky130_fd_pr__nfet_01v8 ad=0p pd=0u as=0p ps=0u w=650000u l=150000u
X39 VGND B2 a_453_47# VNB sky130_fd_pr__nfet_01v8 ad=0p pd=0u as=0p ps=0u w=650000u l=150000u
C0 a_471_297# Y 0.01fF
C1 VGND B2 0.10fF
C2 VPWR A2 0.09fF
C3 a_453_47# B1 0.09fF
C4 a_471_297# VPB 0.18fF
C5 VGND a_1241_47# 0.58fF
C6 A1 A2 0.36fF
C7 a_27_297# B1 0.04fF
C8 B2 a_1241_47# 0.00fF
C9 a_453_47# Y 0.29fF
C10 a_471_297# VPWR 1.40fF
C11 Y a_27_297# 0.48fF
C12 C1 Y 0.37fF
C13 a_471_297# A1 0.06fF
C14 VGND B1 0.03fF
C15 a_27_297# VPB 0.11fF
C16 B2 B1 0.38fF
C17 C1 VPB 0.19fF
C18 a_471_297# A2 0.55fF
C19 VGND Y 0.58fF
C20 a_453_47# VPWR 0.01fF
C21 VPWR a_27_297# 0.41fF
C22 Y B2 0.24fF
C23 B1 a_1241_47# 0.00fF
C24 C1 VPWR 0.04fF
C25 VGND VPB 0.01fF
C26 A1 a_27_297# 0.00fF
C27 B2 VPB 0.22fF
C28 Y a_1241_47# 0.19fF
C29 A2 a_27_297# 0.00fF
C30 VGND VPWR 0.19fF
C31 a_1241_47# VPB 0.00fF
C32 VGND A1 0.04fF
C33 VPWR B2 0.04fF
C34 Y B1 0.23fF
C35 a_471_297# a_27_297# 0.45fF
C36 VGND A2 0.11fF
C37 VPWR a_1241_47# 0.00fF
C38 a_471_297# C1 0.00fF
C39 A1 a_1241_47# 0.08fF
C40 B1 VPB 0.17fF
C41 A2 B2 0.09fF
C42 a_471_297# VGND 0.02fF
C43 Y VPB 0.04fF
C44 A2 a_1241_47# 0.17fF
C45 a_453_47# a_27_297# 0.00fF
C46 VPWR B1 0.03fF
C47 a_471_297# B2 0.14fF
C48 A1 B1 0.00fF
C49 C1 a_27_297# 0.14fF
C50 Y VPWR 0.03fF
C51 a_453_47# VGND 0.83fF
C52 Y A1 0.19fF
C53 A2 B1 0.00fF
C54 VGND a_27_297# 0.01fF
C55 VPWR VPB 0.18fF
C56 a_453_47# B2 0.04fF
C57 C1 VGND 0.12fF
C58 A1 VPB 0.17fF
C59 a_27_297# B2 0.24fF
C60 Y A2 0.07fF
C61 C1 B2 0.04fF
C62 a_471_297# B1 0.08fF
C63 a_453_47# a_1241_47# 0.00fF
C64 A2 VPB 0.26fF
C65 A1 VPWR 0.07fF
C66 VGND VNB 0.96fF
C67 VPWR VNB 0.76fF
C68 Y VNB -1.10fF
C69 A1 VNB 0.29fF
C70 A2 VNB 0.10fF
C71 B1 VNB 0.30fF
C72 B2 VNB 0.16fF
C73 C1 VNB 0.29fF
C74 VPB VNB 1.93fF
C75 a_1241_47# VNB -0.57fF
C76 a_453_47# VNB -0.98fF
C77 a_471_297# VNB -1.81fF
C78 a_27_297# VNB -0.65fF
.ends

.subckt sky130_fd_sc_hd__nor2_1 VGND VPWR A B Y VNB VPB a_109_297#
X0 VPWR A a_109_297# VPB sky130_fd_pr__pfet_01v8_hvt ad=2.6e+11p pd=2.52e+06u as=2.1e+11p ps=2.42e+06u w=1e+06u l=150000u
X1 VGND A Y VNB sky130_fd_pr__nfet_01v8 ad=3.38e+11p pd=3.64e+06u as=1.755e+11p ps=1.84e+06u w=650000u l=150000u
X2 a_109_297# B Y VPB sky130_fd_pr__pfet_01v8_hvt ad=0p pd=0u as=2.6e+11p ps=2.52e+06u w=1e+06u l=150000u
X3 Y B VGND VNB sky130_fd_pr__nfet_01v8 ad=0p pd=0u as=0p ps=0u w=650000u l=150000u
C0 Y VPWR 0.10fF
C1 Y a_109_297# 0.02fF
C2 B VGND 0.06fF
C3 VPWR a_109_297# 0.01fF
C4 A VGND 0.06fF
C5 VPB VGND 0.00fF
C6 Y B 0.10fF
C7 B VPWR 0.02fF
C8 Y A 0.05fF
C9 A VPWR 0.08fF
C10 Y VPB 0.02fF
C11 VPB VPWR 0.05fF
C12 Y VGND 0.16fF
C13 VGND VPWR 0.03fF
C14 VGND a_109_297# 0.00fF
C15 B A 0.06fF
C16 B VPB 0.06fF
C17 VPB A 0.07fF
C18 VGND VNB 0.22fF
C19 VPWR VNB 0.18fF
C20 Y VNB 0.00fF
C21 A VNB 0.11fF
C22 B VNB 0.12fF
C23 VPB VNB 0.34fF
.ends

.subckt sky130_fd_sc_hd__or2b_1 VGND VPWR A X B_N VNB VPB a_27_53# a_219_297# a_301_297#
X0 a_219_297# a_27_53# VGND VNB sky130_fd_pr__nfet_01v8 ad=1.134e+11p pd=1.38e+06u as=5.1875e+11p ps=4.32e+06u w=420000u l=150000u
X1 VGND B_N a_27_53# VNB sky130_fd_pr__nfet_01v8 ad=0p pd=0u as=1.092e+11p ps=1.36e+06u w=420000u l=150000u
X2 VPWR A a_301_297# VPB sky130_fd_pr__pfet_01v8_hvt ad=4.057e+11p pd=4.04e+06u as=8.82e+10p ps=1.26e+06u w=420000u l=150000u
X3 X a_219_297# VGND VNB sky130_fd_pr__nfet_01v8 ad=1.755e+11p pd=1.84e+06u as=0p ps=0u w=650000u l=150000u
X4 a_301_297# a_27_53# a_219_297# VPB sky130_fd_pr__pfet_01v8_hvt ad=0p pd=0u as=1.092e+11p ps=1.36e+06u w=420000u l=150000u
X5 X a_219_297# VPWR VPB sky130_fd_pr__pfet_01v8_hvt ad=2.7e+11p pd=2.54e+06u as=0p ps=0u w=1e+06u l=150000u
X6 a_27_53# B_N VPWR VPB sky130_fd_pr__pfet_01v8_hvt ad=1.176e+11p pd=1.4e+06u as=0p ps=0u w=420000u l=150000u
X7 VGND A a_219_297# VNB sky130_fd_pr__nfet_01v8 ad=0p pd=0u as=0p ps=0u w=420000u l=150000u
C0 A a_219_297# 0.17fF
C1 A B_N 0.00fF
C2 a_219_297# B_N 0.00fF
C3 VPWR X 0.09fF
C4 VPB X 0.02fF
C5 A X 0.01fF
C6 a_219_297# X 0.09fF
C7 B_N X 0.00fF
C8 a_301_297# VGND 0.00fF
C9 a_27_53# VGND 0.16fF
C10 a_301_297# a_27_53# 0.00fF
C11 VPWR VGND 0.06fF
C12 VPB VGND 0.01fF
C13 VPWR a_301_297# 0.00fF
C14 A VGND 0.02fF
C15 VPWR a_27_53# 0.03fF
C16 VGND a_219_297# 0.16fF
C17 VPB a_27_53# 0.08fF
C18 VGND B_N 0.02fF
C19 a_301_297# A 0.00fF
C20 A a_27_53# 0.12fF
C21 a_301_297# a_219_297# 0.01fF
C22 a_27_53# a_219_297# 0.12fF
C23 a_27_53# B_N 0.14fF
C24 VPWR VPB 0.12fF
C25 VGND X 0.04fF
C26 VPWR A 0.24fF
C27 VPB A 0.30fF
C28 VPWR a_219_297# 0.12fF
C29 VPWR B_N 0.04fF
C30 VPB a_219_297# 0.07fF
C31 VPB B_N 0.06fF
C32 a_301_297# X 0.00fF
C33 a_27_53# X 0.00fF
C34 VGND VNB 0.27fF
C35 X VNB 0.04fF
C36 B_N VNB 0.15fF
C37 A VNB -0.28fF
C38 VPWR VNB 0.24fF
C39 VPB VNB 0.60fF
C40 a_27_53# VNB 0.05fF
C41 a_219_297# VNB -0.04fF
.ends

.subckt sky130_fd_sc_hd__mux4_1 VGND VPWR A1 A0 S0 A3 A2 S1 X a_1290_413# a_757_363#
+ a_1478_413# a_277_47# VNB VPB a_750_97# a_27_413# a_923_363# a_193_47# a_834_97#
+ a_247_21# a_668_97# a_193_413# a_27_47#
X0 a_277_47# a_247_21# a_27_413# VPB sky130_fd_pr__pfet_01v8_hvt ad=2.226e+11p pd=2.74e+06u as=2.184e+11p ps=2.72e+06u w=420000u l=150000u
X1 VGND S0 a_247_21# VNB sky130_fd_pr__nfet_01v8 ad=6.142e+11p pd=7.3e+06u as=1.092e+11p ps=1.36e+06u w=420000u l=150000u
X2 a_834_97# a_247_21# a_750_97# VNB sky130_fd_pr__nfet_01v8 ad=2.1715e+11p pd=2.72e+06u as=2.226e+11p ps=2.74e+06u w=420000u l=150000u
X3 VGND A3 a_668_97# VNB sky130_fd_pr__nfet_01v8 ad=0p pd=0u as=2.171e+11p ps=2.72e+06u w=420000u l=150000u
X4 a_1290_413# S1 VPWR VPB sky130_fd_pr__pfet_01v8_hvt ad=1.092e+11p pd=1.36e+06u as=7.039e+11p ps=8e+06u w=420000u l=150000u
X5 a_834_97# A2 VGND VNB sky130_fd_pr__nfet_01v8 ad=0p pd=0u as=0p ps=0u w=420000u l=150000u
X6 a_750_97# S0 a_757_363# VPB sky130_fd_pr__pfet_01v8_hvt ad=3.822e+11p pd=3.5e+06u as=2.171e+11p ps=2.72e+06u w=420000u l=150000u
X7 a_27_47# S0 a_277_47# VNB sky130_fd_pr__nfet_01v8 ad=2.184e+11p pd=2.72e+06u as=2.7965e+11p ps=3.21e+06u w=420000u l=150000u
X8 X a_1478_413# VGND VNB sky130_fd_pr__nfet_01v8 ad=1.69e+11p pd=1.82e+06u as=0p ps=0u w=650000u l=150000u
X9 VPWR A1 a_27_413# VPB sky130_fd_pr__pfet_01v8_hvt ad=0p pd=0u as=0p ps=0u w=420000u l=150000u
X10 VPWR S0 a_247_21# VPB sky130_fd_pr__pfet_01v8_hvt ad=0p pd=0u as=1.083e+11p ps=1.36e+06u w=420000u l=150000u
X11 X a_1478_413# VPWR VPB sky130_fd_pr__pfet_01v8_hvt ad=2.6e+11p pd=2.52e+06u as=0p ps=0u w=1e+06u l=150000u
X12 a_193_47# A0 VGND VNB sky130_fd_pr__nfet_01v8 ad=1.134e+11p pd=1.38e+06u as=0p ps=0u w=420000u l=150000u
X13 a_750_97# a_1290_413# a_1478_413# VPB sky130_fd_pr__pfet_01v8_hvt ad=0p pd=0u as=1.84175e+11p ps=1.98e+06u w=420000u l=150000u
X14 a_1478_413# S1 a_277_47# VPB sky130_fd_pr__pfet_01v8_hvt ad=0p pd=0u as=0p ps=0u w=420000u l=150000u
X15 a_1290_413# S1 VGND VNB sky130_fd_pr__nfet_01v8 ad=1.092e+11p pd=1.36e+06u as=0p ps=0u w=420000u l=150000u
X16 a_277_47# a_247_21# a_193_47# VNB sky130_fd_pr__nfet_01v8 ad=0p pd=0u as=0p ps=0u w=420000u l=150000u
X17 a_750_97# S0 a_668_97# VNB sky130_fd_pr__nfet_01v8 ad=0p pd=0u as=0p ps=0u w=420000u l=150000u
X18 a_923_363# a_247_21# a_750_97# VPB sky130_fd_pr__pfet_01v8_hvt ad=1.8025e+11p pd=1.99e+06u as=0p ps=0u w=420000u l=150000u
X19 a_757_363# A2 VPWR VPB sky130_fd_pr__pfet_01v8_hvt ad=0p pd=0u as=0p ps=0u w=420000u l=150000u
X20 VPWR A3 a_923_363# VPB sky130_fd_pr__pfet_01v8_hvt ad=0p pd=0u as=0p ps=0u w=420000u l=150000u
X21 a_277_47# a_1290_413# a_1478_413# VNB sky130_fd_pr__nfet_01v8 ad=0p pd=0u as=3.0205e+11p ps=2.57e+06u w=420000u l=150000u
X22 a_193_413# A0 VPWR VPB sky130_fd_pr__pfet_01v8_hvt ad=2.171e+11p pd=2.72e+06u as=0p ps=0u w=420000u l=150000u
X23 a_193_413# S0 a_277_47# VPB sky130_fd_pr__pfet_01v8_hvt ad=0p pd=0u as=0p ps=0u w=420000u l=150000u
X24 VGND A1 a_27_47# VNB sky130_fd_pr__nfet_01v8 ad=0p pd=0u as=0p ps=0u w=420000u l=150000u
X25 a_1478_413# S1 a_750_97# VNB sky130_fd_pr__nfet_01v8 ad=0p pd=0u as=0p ps=0u w=420000u l=150000u
C0 a_27_413# a_27_47# 0.01fF
C1 a_668_97# S0 0.06fF
C2 VPWR a_247_21# 0.25fF
C3 a_27_413# a_193_413# 0.08fF
C4 VGND A2 0.02fF
C5 a_27_413# VGND 0.00fF
C6 VPB a_757_363# 0.09fF
C7 a_757_363# a_1478_413# 0.00fF
C8 S1 S0 0.00fF
C9 a_1290_413# S0 0.00fF
C10 VPB X 0.03fF
C11 a_750_97# A0 0.00fF
C12 a_1478_413# X 0.10fF
C13 a_27_47# VGND 0.40fF
C14 A2 A3 0.15fF
C15 VGND a_193_413# 0.00fF
C16 a_750_97# a_277_47# 0.31fF
C17 a_668_97# a_247_21# 0.04fF
C18 a_757_363# VPWR 0.44fF
C19 a_27_47# A3 0.00fF
C20 a_834_97# A2 0.07fF
C21 VPB A1 0.09fF
C22 A1 a_1478_413# 0.00fF
C23 VPWR X 0.12fF
C24 S1 a_247_21# 0.00fF
C25 a_1290_413# a_247_21# 0.01fF
C26 VGND A3 0.02fF
C27 a_27_47# a_834_97# 0.00fF
C28 VGND a_834_97# 0.16fF
C29 a_27_413# S0 0.00fF
C30 A0 a_277_47# 0.04fF
C31 A1 VPWR 0.03fF
C32 a_668_97# X 0.00fF
C33 a_193_47# a_750_97# 0.00fF
C34 a_757_363# S1 0.00fF
C35 a_1290_413# a_757_363# 0.01fF
C36 a_27_47# S0 0.04fF
C37 a_834_97# A3 0.07fF
C38 VPB a_750_97# 0.14fF
C39 a_750_97# a_1478_413# 0.21fF
C40 a_1290_413# X 0.01fF
C41 S1 X 0.00fF
C42 a_193_413# S0 0.04fF
C43 VGND S0 0.12fF
C44 a_247_21# A2 0.00fF
C45 a_27_413# a_247_21# 0.01fF
C46 a_668_97# A1 0.00fF
C47 a_923_363# a_1478_413# 0.00fF
C48 A3 S0 0.00fF
C49 a_750_97# VPWR 0.30fF
C50 A1 S1 0.00fF
C51 a_1290_413# A1 0.00fF
C52 a_27_47# a_247_21# 0.06fF
C53 a_193_47# A0 0.00fF
C54 a_193_413# a_247_21# 0.10fF
C55 VGND a_247_21# 0.14fF
C56 a_834_97# S0 0.00fF
C57 VPB A0 0.09fF
C58 a_923_363# VPWR 0.01fF
C59 A0 a_1478_413# 0.00fF
C60 a_193_47# a_277_47# 0.00fF
C61 a_757_363# A2 0.06fF
C62 a_27_413# a_757_363# 0.00fF
C63 VPB a_277_47# 0.09fF
C64 a_1478_413# a_277_47# 0.11fF
C65 X A2 0.00fF
C66 a_247_21# A3 0.07fF
C67 a_27_413# X 0.00fF
C68 a_668_97# a_750_97# 0.06fF
C69 A0 VPWR 0.03fF
C70 a_750_97# S1 0.11fF
C71 a_1290_413# a_750_97# 0.28fF
C72 a_757_363# a_193_413# 0.00fF
C73 a_247_21# a_834_97# 0.04fF
C74 X VGND 0.10fF
C75 X a_193_413# 0.00fF
C76 a_277_47# VPWR 0.11fF
C77 a_27_413# A1 0.06fF
C78 a_1290_413# a_923_363# 0.00fF
C79 a_757_363# A3 0.06fF
C80 A1 a_27_47# 0.05fF
C81 X A3 0.00fF
C82 a_247_21# S0 0.44fF
C83 a_668_97# A0 0.00fF
C84 A1 a_193_413# 0.00fF
C85 A1 VGND 0.03fF
C86 a_193_47# a_1478_413# 0.00fF
C87 a_757_363# a_834_97# 0.01fF
C88 VPB a_1478_413# 0.17fF
C89 a_668_97# a_277_47# 0.04fF
C90 A0 S1 0.00fF
C91 a_1290_413# A0 0.00fF
C92 X a_834_97# 0.00fF
C93 a_1290_413# a_277_47# 0.43fF
C94 a_277_47# S1 0.13fF
C95 A1 A3 0.00fF
C96 a_750_97# A2 0.02fF
C97 a_27_413# a_750_97# 0.00fF
C98 a_193_47# VPWR 0.00fF
C99 a_757_363# S0 0.04fF
C100 VPB VPWR 0.73fF
C101 a_750_97# a_27_47# 0.00fF
C102 a_1478_413# VPWR 0.43fF
C103 A1 a_834_97# 0.00fF
C104 X S0 0.00fF
C105 a_750_97# a_193_413# 0.00fF
C106 a_750_97# VGND 0.10fF
C107 A1 S0 0.00fF
C108 a_27_413# A0 0.08fF
C109 a_750_97# A3 0.04fF
C110 a_668_97# VPB 0.01fF
C111 a_757_363# a_247_21# 0.04fF
C112 a_668_97# a_1478_413# 0.00fF
C113 X a_247_21# 0.00fF
C114 a_277_47# A2 0.03fF
C115 a_27_413# a_277_47# 0.05fF
C116 VPB S1 0.26fF
C117 VPB a_1290_413# 0.18fF
C118 A0 a_27_47# 0.06fF
C119 a_1290_413# a_1478_413# 0.13fF
C120 a_1478_413# S1 0.01fF
C121 a_750_97# a_834_97# 0.04fF
C122 a_923_363# A3 0.00fF
C123 A0 a_193_413# 0.00fF
C124 A0 VGND 0.02fF
C125 a_277_47# a_27_47# 0.10fF
C126 a_668_97# VPWR 0.00fF
C127 A1 a_247_21# 0.00fF
C128 a_923_363# a_834_97# 0.00fF
C129 a_277_47# a_193_413# 0.07fF
C130 a_277_47# VGND 0.47fF
C131 VPWR S1 0.07fF
C132 A0 A3 0.00fF
C133 a_1290_413# VPWR 0.12fF
C134 a_757_363# X 0.00fF
C135 a_750_97# S0 0.11fF
C136 a_277_47# A3 0.02fF
C137 A0 a_834_97# 0.00fF
C138 VPB A2 0.09fF
C139 VPB a_27_413# 0.08fF
C140 a_757_363# A1 0.00fF
C141 a_1478_413# A2 0.00fF
C142 a_277_47# a_834_97# 0.07fF
C143 a_27_413# a_1478_413# 0.00fF
C144 a_668_97# a_1290_413# 0.00fF
C145 a_750_97# a_247_21# 0.18fF
C146 a_193_47# a_27_47# 0.01fF
C147 VPB a_27_47# 0.01fF
C148 a_1478_413# a_27_47# 0.00fF
C149 a_1290_413# S1 0.17fF
C150 A0 S0 0.00fF
C151 a_193_47# VGND 0.01fF
C152 VPB a_193_413# 0.07fF
C153 VPB VGND 0.07fF
C154 a_1478_413# VGND 0.40fF
C155 a_1478_413# a_193_413# 0.00fF
C156 VPWR A2 0.02fF
C157 a_27_413# VPWR 0.14fF
C158 a_277_47# S0 0.07fF
C159 VPB A3 0.09fF
C160 a_757_363# a_750_97# 0.18fF
C161 a_27_47# VPWR 0.00fF
C162 a_1478_413# A3 0.00fF
C163 a_750_97# X 0.00fF
C164 A0 a_247_21# 0.07fF
C165 VPWR a_193_413# 0.42fF
C166 VPWR VGND 0.06fF
C167 a_193_47# a_834_97# 0.00fF
C168 VPB a_834_97# 0.05fF
C169 a_757_363# a_923_363# 0.02fF
C170 a_1478_413# a_834_97# 0.00fF
C171 a_277_47# a_247_21# 0.46fF
C172 a_923_363# X 0.00fF
C173 VPWR A3 0.02fF
C174 S1 A2 0.06fF
C175 a_1290_413# A2 0.00fF
C176 a_1290_413# a_27_413# 0.00fF
C177 a_668_97# a_27_47# 0.00fF
C178 A1 a_750_97# 0.00fF
C179 a_668_97# VGND 0.41fF
C180 VPB S0 0.41fF
C181 a_757_363# A0 0.00fF
C182 a_1290_413# a_27_47# 0.00fF
C183 a_1478_413# S0 0.00fF
C184 VPWR a_834_97# 0.00fF
C185 a_1290_413# VGND 0.10fF
C186 a_1290_413# a_193_413# 0.00fF
C187 S1 VGND 0.07fF