*SPEF "ieee 1481-1999"
*DESIGN "tempsenseInst_error"
*DATE "11:11:11 Fri 11 11, 1111"
*VENDOR "OpenRCX"
*PROGRAM "Parallel Extraction"
*VERSION "1.0"
*DESIGN_FLOW "NAME_SCOPE LOCAL" "PIN_CAP NONE"
*DIVIDER /
*DELIMITER :
*BUS_DELIMITER []
*T_UNIT 1 NS
*C_UNIT 1 PF
*R_UNIT 1 OHM
*L_UNIT 1 HENRY

*NAME_MAP
*1 CLK_REF
*2 DONE
*3 DOUT[0]
*4 DOUT[10]
*5 DOUT[11]
*6 DOUT[12]
*7 DOUT[13]
*8 DOUT[14]
*9 DOUT[15]
*10 DOUT[16]
*11 DOUT[17]
*12 DOUT[18]
*13 DOUT[19]
*14 DOUT[1]
*15 DOUT[20]
*16 DOUT[21]
*17 DOUT[22]
*18 DOUT[23]
*19 DOUT[2]
*20 DOUT[3]
*21 DOUT[4]
*22 DOUT[5]
*23 DOUT[6]
*24 DOUT[7]
*25 DOUT[8]
*26 DOUT[9]
*27 RESET_COUNTERn
*28 SEL_CONV_TIME[0]
*29 SEL_CONV_TIME[1]
*30 SEL_CONV_TIME[2]
*31 SEL_CONV_TIME[3]
*32 _000_
*33 _001_
*34 _002_
*35 _003_
*36 _004_
*37 _005_
*38 _006_
*39 _007_
*40 _008_
*41 _009_
*42 _010_
*43 _011_
*44 _012_
*45 _013_
*46 _014_
*47 _015_
*48 _016_
*49 _017_
*50 _018_
*51 _019_
*52 _020_
*53 _021_
*54 _022_
*55 _023_
*56 _024_
*57 _025_
*58 _026_
*59 _027_
*60 _028_
*61 _029_
*62 _030_
*63 _031_
*64 _032_
*65 _033_
*66 _034_
*67 _035_
*68 _036_
*69 _037_
*70 _038_
*71 _039_
*72 _040_
*73 _041_
*74 _042_
*75 _043_
*76 _044_
*77 _045_
*80 _048_
*81 _049_
*82 _050_
*83 _051_
*84 _052_
*85 _053_
*86 _054_
*87 _055_
*89 _057_
*90 _058_
*91 _059_
*92 _060_
*93 _061_
*94 _062_
*99 _067_
*100 _068_
*101 en
*102 lc_out
*103 out
*104 outb
*105 temp_analog_0\.n1
*106 temp_analog_0\.n2
*107 temp_analog_0\.n3
*108 temp_analog_0\.n4
*109 temp_analog_0\.n5
*110 temp_analog_0\.n6
*111 temp_analog_0\.n7
*113 r_VIN
*115 temp_analog_0\.nx2
*117 temp_analog_1\.VIN
*118 temp_analog_1\.async_counter_0\.WAKE
*119 temp_analog_1\.async_counter_0\.WAKE_pre
*120 temp_analog_1\.async_counter_0\.clk_ref_in
*121 temp_analog_1\.async_counter_0\.clk_sens_in
*122 temp_analog_1\.async_counter_0\.div_r\[0\]
*123 temp_analog_1\.async_counter_0\.div_r\[10\]
*124 temp_analog_1\.async_counter_0\.div_r\[11\]
*125 temp_analog_1\.async_counter_0\.div_r\[12\]
*126 temp_analog_1\.async_counter_0\.div_r\[13\]
*127 temp_analog_1\.async_counter_0\.div_r\[14\]
*128 temp_analog_1\.async_counter_0\.div_r\[15\]
*129 temp_analog_1\.async_counter_0\.div_r\[16\]
*130 temp_analog_1\.async_counter_0\.div_r\[17\]
*131 temp_analog_1\.async_counter_0\.div_r\[18\]
*132 temp_analog_1\.async_counter_0\.div_r\[19\]
*133 temp_analog_1\.async_counter_0\.div_r\[1\]
*134 temp_analog_1\.async_counter_0\.div_r\[20\]
*135 temp_analog_1\.async_counter_0\.div_r\[2\]
*136 temp_analog_1\.async_counter_0\.div_r\[3\]
*137 temp_analog_1\.async_counter_0\.div_r\[4\]
*138 temp_analog_1\.async_counter_0\.div_r\[5\]
*139 temp_analog_1\.async_counter_0\.div_r\[6\]
*140 temp_analog_1\.async_counter_0\.div_r\[7\]
*141 temp_analog_1\.async_counter_0\.div_r\[8\]
*142 temp_analog_1\.async_counter_0\.div_r\[9\]
*143 temp_analog_1\.async_counter_0\.div_s\[0\]
*144 temp_analog_1\.async_counter_0\.div_s\[10\]
*145 temp_analog_1\.async_counter_0\.div_s\[11\]
*146 temp_analog_1\.async_counter_0\.div_s\[12\]
*147 temp_analog_1\.async_counter_0\.div_s\[13\]
*148 temp_analog_1\.async_counter_0\.div_s\[14\]
*149 temp_analog_1\.async_counter_0\.div_s\[15\]
*150 temp_analog_1\.async_counter_0\.div_s\[16\]
*151 temp_analog_1\.async_counter_0\.div_s\[17\]
*152 temp_analog_1\.async_counter_0\.div_s\[18\]
*153 temp_analog_1\.async_counter_0\.div_s\[19\]
*154 temp_analog_1\.async_counter_0\.div_s\[1\]
*155 temp_analog_1\.async_counter_0\.div_s\[20\]
*156 temp_analog_1\.async_counter_0\.div_s\[21\]
*157 temp_analog_1\.async_counter_0\.div_s\[22\]
*158 temp_analog_1\.async_counter_0\.div_s\[23\]
*159 temp_analog_1\.async_counter_0\.div_s\[2\]
*160 temp_analog_1\.async_counter_0\.div_s\[3\]
*161 temp_analog_1\.async_counter_0\.div_s\[4\]
*162 temp_analog_1\.async_counter_0\.div_s\[5\]
*163 temp_analog_1\.async_counter_0\.div_s\[6\]
*164 temp_analog_1\.async_counter_0\.div_s\[7\]
*165 temp_analog_1\.async_counter_0\.div_s\[8\]
*166 temp_analog_1\.async_counter_0\.div_s\[9\]
*167 _069_
*168 _070_
*169 _071_
*170 _072_
*171 _073_
*172 _074_
*173 _075_
*174 _076_
*175 _077_
*176 _078_
*177 _079_
*178 _080_
*179 _081_
*180 _082_
*181 _083_
*182 _084_
*183 PHY_12
*184 PHY_11
*185 _087_
*186 _088_
*187 _089_
*188 _090_
*189 _091_
*190 _092_
*191 _093_
*192 _094_
*193 PHY_10
*194 _096_
*195 _097_
*196 _098_
*197 _099_
*198 _100_
*199 _101_
*200 _102_
*201 _103_
*202 _104_
*203 PHY_9
*204 PHY_8
*205 _107_
*206 _108_
*207 _109_
*208 _110_
*209 _111_
*210 _112_
*211 _113_
*212 _114_
*213 _115_
*214 _116_
*215 _117_
*216 _118_
*217 _119_
*218 _120_
*219 _121_
*220 _122_
*221 _123_
*222 _124_
*223 PHY_7
*224 PHY_6
*225 _127_
*226 _128_
*227 _129_
*228 _130_
*229 _131_
*230 _132_
*231 _133_
*232 _134_
*233 _135_
*234 _136_
*235 _137_
*236 _138_
*237 _139_
*238 _140_
*239 _141_
*240 _142_
*241 _143_
*242 _144_
*243 _145_
*244 _146_
*245 _147_
*246 _148_
*247 _149_
*248 _150_
*249 _151_
*250 _152_
*251 _153_
*252 _154_
*253 _155_
*254 _156_
*255 _157_
*256 _158_
*257 _159_
*258 _160_
*259 _161_
*260 _162_
*261 _163_
*262 _164_
*263 _165_
*264 _166_
*265 _167_
*266 _168_
*267 _169_
*268 _170_
*269 _171_
*270 _172_
*271 _173_
*272 _174_
*273 _175_
*274 _176_
*275 _177_
*276 _178_
*277 _179_
*278 _180_
*279 _181_
*280 _182_
*281 _183_
*282 _184_
*283 _185_
*284 _186_
*285 _187_
*286 _188_
*287 _189_
*288 _190_
*289 _191_
*290 _192_
*291 _193_
*292 _194_
*293 _195_
*294 _196_
*295 _197_
*296 _198_
*297 _199_
*298 _200_
*299 _201_
*300 _202_
*301 _203_
*302 _204_
*303 _205_
*304 _206_
*305 _207_
*306 _208_
*307 _209_
*308 _210_
*309 _211_
*310 PHY_5
*311 PHY_4
*312 PHY_3
*313 PHY_2
*314 temp_analog_0\.a_inv_0
*315 temp_analog_0\.a_inv_1
*316 temp_analog_0\.a_inv_2
*317 temp_analog_0\.a_inv_3
*318 temp_analog_0\.a_inv_4
*319 temp_analog_0\.a_inv_5
*320 temp_analog_0\.a_inv_m1
*321 temp_analog_0\.a_inv_m2
*322 temp_analog_0\.a_inv_m3
*323 temp_analog_0\.a_nand_0
*324 PHY_1
*325 temp_analog_1\.a_header_0
*326 temp_analog_1\.a_header_1
*327 temp_analog_1\.a_header_2
*328 temp_analog_1\.a_lc_0
*329 PHY_0
*330 PHY_13
*331 PHY_14
*332 PHY_15
*333 PHY_16
*334 PHY_17
*335 PHY_18
*336 PHY_19
*337 PHY_20
*338 PHY_21
*339 PHY_22
*340 PHY_23
*341 PHY_24
*342 PHY_25
*343 PHY_26
*344 PHY_27
*345 PHY_28
*346 PHY_29
*347 PHY_30
*348 PHY_31
*349 PHY_32
*350 PHY_33
*351 PHY_34
*352 PHY_35
*353 PHY_36
*354 PHY_37
*355 PHY_38
*356 PHY_39
*357 PHY_40
*358 PHY_41
*359 PHY_42
*360 PHY_43
*361 PHY_44
*362 PHY_45
*363 PHY_46
*364 PHY_47
*365 PHY_48
*366 PHY_49
*367 PHY_50
*368 PHY_51
*369 PHY_52
*370 PHY_53
*371 PHY_54
*372 PHY_55
*373 PHY_56
*374 PHY_57
*375 PHY_58
*376 PHY_59
*377 PHY_60
*378 PHY_61
*379 PHY_62
*380 PHY_63
*381 PHY_64
*382 PHY_65
*383 PHY_66
*384 PHY_67
*385 PHY_68
*386 PHY_69
*387 PHY_70
*388 PHY_71
*389 PHY_72
*390 PHY_73
*391 PHY_74
*392 PHY_75
*393 PHY_76
*394 PHY_77
*395 PHY_78
*396 PHY_79
*397 PHY_80
*398 PHY_81
*399 PHY_82
*400 PHY_83
*401 PHY_84
*402 PHY_85
*403 PHY_86
*404 PHY_87
*405 PHY_88
*406 PHY_89
*407 PHY_90
*408 PHY_91
*409 PHY_92
*410 PHY_93
*411 PHY_94
*412 PHY_95
*413 PHY_96
*414 PHY_97
*415 PHY_98
*416 PHY_99
*417 PHY_100
*418 PHY_101
*419 PHY_102
*420 PHY_103
*421 PHY_104
*422 PHY_105
*423 TAP_106
*424 TAP_107
*425 TAP_108
*426 TAP_109
*427 TAP_110
*428 TAP_111
*429 TAP_112
*430 TAP_113
*431 TAP_114
*432 TAP_115
*433 TAP_116
*434 TAP_117
*435 TAP_118
*436 TAP_119
*437 TAP_120
*438 TAP_121
*439 TAP_122
*440 TAP_123
*441 TAP_124
*442 TAP_125
*443 TAP_126
*444 TAP_127
*445 TAP_128
*446 TAP_129
*447 TAP_130
*448 TAP_131
*449 TAP_132
*450 TAP_133
*451 TAP_134
*452 TAP_135
*453 TAP_136
*454 TAP_137
*455 TAP_138
*456 TAP_139
*457 TAP_140
*458 TAP_141
*459 TAP_142
*460 TAP_143
*461 TAP_144
*462 TAP_145
*463 TAP_146
*464 TAP_147
*465 TAP_148
*466 TAP_149
*467 TAP_150
*468 TAP_151
*469 TAP_152
*470 TAP_153
*471 TAP_154
*472 TAP_155
*473 TAP_156
*474 TAP_157
*475 TAP_158
*476 TAP_159
*477 TAP_160
*478 TAP_161
*479 TAP_162
*480 TAP_163
*481 TAP_164
*482 TAP_165
*483 TAP_166
*484 TAP_167
*485 TAP_168
*486 TAP_169
*487 TAP_170
*488 TAP_171
*489 TAP_172
*490 TAP_173
*491 TAP_174
*492 TAP_175
*493 TAP_176
*494 TAP_177
*495 TAP_178
*496 TAP_179
*497 TAP_180
*498 TAP_181
*499 TAP_182
*500 TAP_183
*501 TAP_184
*502 TAP_185
*503 TAP_186
*504 TAP_187
*505 TAP_188
*506 TAP_189
*507 TAP_190
*508 TAP_191
*509 TAP_192
*510 TAP_193
*511 TAP_194
*512 TAP_195
*513 TAP_196
*514 TAP_197
*515 TAP_198
*516 TAP_199
*517 TAP_200
*518 TAP_201
*519 TAP_202
*520 TAP_203
*521 TAP_204
*522 TAP_205
*523 TAP_206
*524 TAP_207
*525 TAP_208
*526 TAP_209
*527 TAP_210
*528 TAP_211
*529 TAP_212
*530 TAP_213
*531 TAP_214
*532 TAP_215
*533 TAP_216
*534 TAP_217
*535 TAP_218
*536 TAP_219
*537 TAP_220
*538 TAP_221
*539 TAP_222
*540 TAP_223
*541 TAP_224
*542 TAP_225
*543 TAP_226
*544 TAP_227
*545 TAP_228
*546 TAP_229
*547 TAP_230
*548 TAP_231
*549 TAP_232
*550 TAP_233
*551 TAP_234
*552 TAP_235
*553 TAP_236
*554 TAP_237
*555 TAP_238
*556 TAP_239
*557 TAP_240
*558 TAP_241
*559 TAP_242
*560 TAP_243
*561 TAP_244
*562 FILLER_0_140
*563 FILLER_0_148
*564 FILLER_0_156
*565 FILLER_0_164
*566 FILLER_0_167
*567 FILLER_0_175
*568 FILLER_0_183
*569 FILLER_0_191
*570 FILLER_0_195
*571 FILLER_0_197
*572 FILLER_0_205
*573 FILLER_0_213
*574 FILLER_0_221
*575 FILLER_0_225
*576 FILLER_0_227
*577 FILLER_0_235
*578 FILLER_0_243
*579 FILLER_0_251
*580 FILLER_0_253
*581 FILLER_1_194
*582 FILLER_1_197
*583 FILLER_1_205
*584 FILLER_1_213
*585 FILLER_1_221
*586 FILLER_1_229
*587 FILLER_1_237
*588 FILLER_1_245
*589 FILLER_1_253
*590 FILLER_2_160
*591 FILLER_2_164
*592 FILLER_2_194
*593 FILLER_2_202
*594 FILLER_2_210
*595 FILLER_2_218
*596 FILLER_2_227
*597 FILLER_2_235
*598 FILLER_2_243
*599 FILLER_2_251
*600 FILLER_2_253
*601 FILLER_3_160
*602 FILLER_3_168
*603 FILLER_3_176
*604 FILLER_3_184
*605 FILLER_3_192
*606 FILLER_3_197
*607 FILLER_3_205
*608 FILLER_3_213
*609 FILLER_3_221
*610 FILLER_3_229
*611 FILLER_3_237
*612 FILLER_3_245
*613 FILLER_3_253
*614 FILLER_4_147
*615 FILLER_4_155
*616 FILLER_4_163
*617 FILLER_4_165
*618 FILLER_4_167
*619 FILLER_4_175
*620 FILLER_4_183
*621 FILLER_4_191
*622 FILLER_4_199
*623 FILLER_4_207
*624 FILLER_4_215
*625 FILLER_4_223
*626 FILLER_4_225
*627 FILLER_4_227
*628 FILLER_4_235
*629 FILLER_4_243
*630 FILLER_4_251
*631 FILLER_4_253
*632 FILLER_5_157
*633 FILLER_5_165
*634 FILLER_5_167
*635 FILLER_5_175
*636 FILLER_5_183
*637 FILLER_5_191
*638 FILLER_5_195
*639 FILLER_5_197
*640 FILLER_5_205
*641 FILLER_5_213
*642 FILLER_5_221
*643 FILLER_5_225
*644 FILLER_5_227
*645 FILLER_5_235
*646 FILLER_5_243
*647 FILLER_5_251
*648 FILLER_5_253
*649 FILLER_6_37
*650 FILLER_6_45
*651 FILLER_6_53
*652 FILLER_6_61
*653 FILLER_6_64
*654 FILLER_6_72
*655 FILLER_6_80
*656 FILLER_6_88
*657 FILLER_6_92
*658 FILLER_6_94
*659 FILLER_6_96
*660 FILLER_6_151
*661 FILLER_6_156
*662 FILLER_6_164
*663 FILLER_6_167
*664 FILLER_6_175
*665 FILLER_6_183
*666 FILLER_6_191
*667 FILLER_6_195
*668 FILLER_6_197
*669 FILLER_6_203
*670 FILLER_6_211
*671 FILLER_6_219
*672 FILLER_6_223
*673 FILLER_6_225
*674 FILLER_6_227
*675 FILLER_6_235
*676 FILLER_6_243
*677 FILLER_6_251
*678 FILLER_6_253
*679 FILLER_7_37
*680 FILLER_7_45
*681 FILLER_7_53
*682 FILLER_7_61
*683 FILLER_7_69
*684 FILLER_7_77
*685 FILLER_7_85
*686 FILLER_7_94
*687 FILLER_7_96
*688 FILLER_7_180
*689 FILLER_7_188
*690 FILLER_7_200
*691 FILLER_7_208
*692 FILLER_7_216
*693 FILLER_7_224
*694 FILLER_7_232
*695 FILLER_7_240
*696 FILLER_7_248
*697 FILLER_7_252
*698 FILLER_8_37
*699 FILLER_8_45
*700 FILLER_8_53
*701 FILLER_8_61
*702 FILLER_8_64
*703 FILLER_8_72
*704 FILLER_8_80
*705 FILLER_8_88
*706 FILLER_8_96
*707 FILLER_8_164
*708 FILLER_8_167
*709 FILLER_8_179
*710 FILLER_8_183
*711 FILLER_8_185
*712 FILLER_8_214
*713 FILLER_8_222
*714 FILLER_8_227
*715 FILLER_8_235
*716 FILLER_8_243
*717 FILLER_8_251
*718 FILLER_8_253
*719 FILLER_9_37
*720 FILLER_9_45
*721 FILLER_9_53
*722 FILLER_9_61
*723 FILLER_9_69
*724 FILLER_9_77
*725 FILLER_9_85
*726 FILLER_9_94
*727 FILLER_9_96
*728 FILLER_9_140
*729 FILLER_9_144
*730 FILLER_9_168
*731 FILLER_9_190
*732 FILLER_9_194
*733 FILLER_9_197
*734 FILLER_9_221
*735 FILLER_9_229
*736 FILLER_9_237
*737 FILLER_9_245
*738 FILLER_9_253
*739 FILLER_10_37
*740 FILLER_10_45
*741 FILLER_10_53
*742 FILLER_10_61
*743 FILLER_10_64
*744 FILLER_10_72
*745 FILLER_10_80
*746 FILLER_10_88
*747 FILLER_10_96
*748 FILLER_10_140
*749 FILLER_10_142
*750 FILLER_10_190
*751 FILLER_10_192
*752 FILLER_10_216
*753 FILLER_10_224
*754 FILLER_10_227
*755 FILLER_10_235
*756 FILLER_10_243
*757 FILLER_10_251
*758 FILLER_10_253
*759 FILLER_11_37
*760 FILLER_11_45
*761 FILLER_11_53
*762 FILLER_11_61
*763 FILLER_11_69
*764 FILLER_11_77
*765 FILLER_11_85
*766 FILLER_11_94
*767 FILLER_11_96
*768 FILLER_11_163
*769 FILLER_11_171
*770 FILLER_11_176
*771 FILLER_11_184
*772 FILLER_11_192
*773 FILLER_11_197
*774 FILLER_11_205
*775 FILLER_11_213
*776 FILLER_11_221
*777 FILLER_11_229
*778 FILLER_11_237
*779 FILLER_11_245
*780 FILLER_11_253
*781 FILLER_12_37
*782 FILLER_12_45
*783 FILLER_12_53
*784 FILLER_12_61
*785 FILLER_12_64
*786 FILLER_12_72
*787 FILLER_12_80
*788 FILLER_12_88
*789 FILLER_12_96
*790 FILLER_12_144
*791 FILLER_12_152
*792 FILLER_12_160
*793 FILLER_12_164
*794 FILLER_12_167
*795 FILLER_12_169
*796 FILLER_12_173
*797 FILLER_12_181
*798 FILLER_12_185
*799 FILLER_12_193
*800 FILLER_12_202
*801 FILLER_12_210
*802 FILLER_12_218
*803 FILLER_12_227
*804 FILLER_12_235
*805 FILLER_12_243
*806 FILLER_12_251
*807 FILLER_12_253
*808 FILLER_13_37
*809 FILLER_13_45
*810 FILLER_13_53
*811 FILLER_13_61
*812 FILLER_13_69
*813 FILLER_13_77
*814 FILLER_13_85
*815 FILLER_13_90
*816 FILLER_13_92
*817 FILLER_13_140
*818 FILLER_13_148
*819 FILLER_13_192
*820 FILLER_13_197
*821 FILLER_13_205
*822 FILLER_13_213
*823 FILLER_13_221
*824 FILLER_13_229
*825 FILLER_13_237
*826 FILLER_13_245
*827 FILLER_13_253
*828 FILLER_14_37
*829 FILLER_14_45
*830 FILLER_14_53
*831 FILLER_14_61
*832 FILLER_14_64
*833 FILLER_14_72
*834 FILLER_14_80
*835 FILLER_14_84
*836 FILLER_14_95
*837 FILLER_14_140
*838 FILLER_14_148
*839 FILLER_14_156
*840 FILLER_14_164
*841 FILLER_14_167
*842 FILLER_14_175
*843 FILLER_14_183
*844 FILLER_14_191
*845 FILLER_14_199
*846 FILLER_14_207
*847 FILLER_14_215
*848 FILLER_14_223
*849 FILLER_14_225
*850 FILLER_14_227
*851 FILLER_14_235
*852 FILLER_14_243
*853 FILLER_14_251
*854 FILLER_14_253
*855 FILLER_15_37
*856 FILLER_15_45
*857 FILLER_15_53
*858 FILLER_15_61
*859 FILLER_15_69
*860 FILLER_15_77
*861 FILLER_15_81
*862 FILLER_15_83
*863 FILLER_15_140
*864 FILLER_15_148
*865 FILLER_15_156
*866 FILLER_15_164
*867 FILLER_15_172
*868 FILLER_15_174
*869 FILLER_15_179
*870 FILLER_15_187
*871 FILLER_15_195
*872 FILLER_15_197
*873 FILLER_15_205
*874 FILLER_15_213
*875 FILLER_15_221
*876 FILLER_15_229
*877 FILLER_15_237
*878 FILLER_15_245
*879 FILLER_15_253
*880 FILLER_16_37
*881 FILLER_16_45
*882 FILLER_16_53
*883 FILLER_16_61
*884 FILLER_16_64
*885 FILLER_16_72
*886 FILLER_16_80
*887 FILLER_16_82
*888 FILLER_16_86
*889 FILLER_16_90
*890 FILLER_16_92
*891 FILLER_16_94
*892 FILLER_16_96
*893 FILLER_16_140
*894 FILLER_16_148
*895 FILLER_16_156
*896 FILLER_16_164
*897 FILLER_16_167
*898 FILLER_16_175
*899 FILLER_16_183
*900 FILLER_16_191
*901 FILLER_16_195
*902 FILLER_16_197
*903 FILLER_16_205
*904 FILLER_16_213
*905 FILLER_16_221
*906 FILLER_16_225
*907 FILLER_16_227
*908 FILLER_16_235
*909 FILLER_16_243
*910 FILLER_16_251
*911 FILLER_16_253
*912 FILLER_17_140
*913 FILLER_17_148
*914 FILLER_17_156
*915 FILLER_17_164
*916 FILLER_17_191
*917 FILLER_17_195
*918 FILLER_17_197
*919 FILLER_17_205
*920 FILLER_17_213
*921 FILLER_17_221
*922 FILLER_17_225
*923 FILLER_17_227
*924 FILLER_17_235
*925 FILLER_17_243
*926 FILLER_17_251
*927 FILLER_17_253
*928 FILLER_18_140
*929 FILLER_18_148
*930 FILLER_18_156
*931 FILLER_18_164
*932 FILLER_18_167
*933 FILLER_18_175
*934 FILLER_18_182
*935 FILLER_18_190
*936 FILLER_18_198
*937 FILLER_18_206
*938 FILLER_18_214
*939 FILLER_18_222
*940 FILLER_18_227
*941 FILLER_18_235
*942 FILLER_18_243
*943 FILLER_18_251
*944 FILLER_18_253
*945 FILLER_19_140
*946 FILLER_19_148
*947 FILLER_19_156
*948 FILLER_19_164
*949 FILLER_19_172
*950 FILLER_19_180
*951 FILLER_19_188
*952 FILLER_19_197
*953 FILLER_19_205
*954 FILLER_19_213
*955 FILLER_19_221
*956 FILLER_19_229
*957 FILLER_19_237
*958 FILLER_19_245
*959 FILLER_19_253
*960 FILLER_20_140
*961 FILLER_20_148
*962 FILLER_20_156
*963 FILLER_20_164
*964 FILLER_20_167
*965 FILLER_20_175
*966 FILLER_20_183
*967 FILLER_20_191
*968 FILLER_20_199
*969 FILLER_20_207
*970 FILLER_20_215
*971 FILLER_20_223
*972 FILLER_20_225
*973 FILLER_20_227
*974 FILLER_20_235
*975 FILLER_20_243
*976 FILLER_20_251
*977 FILLER_20_253
*978 FILLER_21_144
*979 FILLER_21_152
*980 FILLER_21_160
*981 FILLER_21_168
*982 FILLER_21_176
*983 FILLER_21_184
*984 FILLER_21_192
*985 FILLER_21_197
*986 FILLER_21_205
*987 FILLER_21_213
*988 FILLER_21_221
*989 FILLER_21_229
*990 FILLER_21_237
*991 FILLER_21_245
*992 FILLER_21_253
*993 FILLER_22_160
*994 FILLER_22_164
*995 FILLER_22_167
*996 FILLER_22_175
*997 FILLER_22_183
*998 FILLER_22_185
*999 FILLER_22_206
*1000 FILLER_22_214
*1001 FILLER_22_222
*1002 FILLER_22_227
*1003 FILLER_22_235
*1004 FILLER_22_243
*1005 FILLER_22_251
*1006 FILLER_22_253
*1007 FILLER_23_4
*1008 FILLER_23_12
*1009 FILLER_23_20
*1010 FILLER_23_28
*1011 FILLER_23_31
*1012 FILLER_23_39
*1013 FILLER_23_47
*1014 FILLER_23_55
*1015 FILLER_23_59
*1016 FILLER_23_61
*1017 FILLER_23_69
*1018 FILLER_23_77
*1019 FILLER_23_85
*1020 FILLER_23_89
*1021 FILLER_23_91
*1022 FILLER_23_99
*1023 FILLER_23_107
*1024 FILLER_23_115
*1025 FILLER_23_119
*1026 FILLER_23_121
*1027 FILLER_23_131
*1028 FILLER_23_139
*1029 FILLER_23_143
*1030 FILLER_23_147
*1031 FILLER_23_149
*1032 FILLER_23_151
*1033 FILLER_23_162
*1034 FILLER_23_170
*1035 FILLER_23_178
*1036 FILLER_23_181
*1037 FILLER_23_189
*1038 FILLER_23_193
*1039 FILLER_23_195
*1040 FILLER_23_199
*1041 FILLER_23_207
*1042 FILLER_23_209
*1043 FILLER_23_211
*1044 FILLER_23_219
*1045 FILLER_23_227
*1046 FILLER_23_235
*1047 FILLER_23_239
*1048 FILLER_23_241
*1049 FILLER_23_249
*1050 FILLER_23_253
*1051 FILLER_24_4
*1052 FILLER_24_12
*1053 FILLER_24_20
*1054 FILLER_24_28
*1055 FILLER_24_31
*1056 FILLER_24_39
*1057 FILLER_24_47
*1058 FILLER_24_55
*1059 FILLER_24_63
*1060 FILLER_24_71
*1061 FILLER_24_79
*1062 FILLER_24_87
*1063 FILLER_24_89
*1064 FILLER_24_91
*1065 FILLER_24_99
*1066 FILLER_24_107
*1067 FILLER_24_115
*1068 FILLER_24_117
*1069 FILLER_24_144
*1070 FILLER_24_148
*1071 FILLER_24_171
*1072 FILLER_24_173
*1073 FILLER_24_197
*1074 FILLER_24_201
*1075 FILLER_24_206
*1076 FILLER_24_211
*1077 FILLER_24_219
*1078 FILLER_24_227
*1079 FILLER_24_235
*1080 FILLER_24_243
*1081 FILLER_24_251
*1082 FILLER_24_253
*1083 FILLER_25_4
*1084 FILLER_25_12
*1085 FILLER_25_20
*1086 FILLER_25_28
*1087 FILLER_25_36
*1088 FILLER_25_44
*1089 FILLER_25_52
*1090 FILLER_25_61
*1091 FILLER_25_69
*1092 FILLER_25_77
*1093 FILLER_25_107
*1094 FILLER_25_115
*1095 FILLER_25_119
*1096 FILLER_25_121
*1097 FILLER_25_129
*1098 FILLER_25_137
*1099 FILLER_25_145
*1100 FILLER_25_153
*1101 FILLER_25_161
*1102 FILLER_25_169
*1103 FILLER_25_177
*1104 FILLER_25_179
*1105 FILLER_25_181
*1106 FILLER_25_189
*1107 FILLER_25_197
*1108 FILLER_25_205
*1109 FILLER_25_213
*1110 FILLER_25_221
*1111 FILLER_25_229
*1112 FILLER_25_237
*1113 FILLER_25_239
*1114 FILLER_25_241
*1115 FILLER_25_249
*1116 FILLER_25_253
*1117 FILLER_26_4
*1118 FILLER_26_12
*1119 FILLER_26_20
*1120 FILLER_26_28
*1121 FILLER_26_31
*1122 FILLER_26_39
*1123 FILLER_26_47
*1124 FILLER_26_55
*1125 FILLER_26_63
*1126 FILLER_26_71
*1127 FILLER_26_75
*1128 FILLER_26_84
*1129 FILLER_26_86
*1130 FILLER_26_91
*1131 FILLER_26_99
*1132 FILLER_26_101
*1133 FILLER_26_130
*1134 FILLER_26_138
*1135 FILLER_26_142
*1136 FILLER_26_147
*1137 FILLER_26_149
*1138 FILLER_26_151
*1139 FILLER_26_159
*1140 FILLER_26_167
*1141 FILLER_26_175
*1142 FILLER_26_183
*1143 FILLER_26_185
*1144 FILLER_26_189
*1145 FILLER_26_193
*1146 FILLER_26_195
*1147 FILLER_26_200
*1148 FILLER_26_208
*1149 FILLER_26_211
*1150 FILLER_26_219
*1151 FILLER_26_227
*1152 FILLER_26_235
*1153 FILLER_26_243
*1154 FILLER_26_251
*1155 FILLER_26_253
*1156 FILLER_27_4
*1157 FILLER_27_12
*1158 FILLER_27_20
*1159 FILLER_27_28
*1160 FILLER_27_36
*1161 FILLER_27_44
*1162 FILLER_27_52
*1163 FILLER_27_61
*1164 FILLER_27_69
*1165 FILLER_27_73
*1166 FILLER_27_75
*1167 FILLER_27_96
*1168 FILLER_27_104
*1169 FILLER_27_112
*1170 FILLER_27_121
*1171 FILLER_27_129
*1172 FILLER_27_137
*1173 FILLER_27_145
*1174 FILLER_27_153
*1175 FILLER_27_161
*1176 FILLER_27_169
*1177 FILLER_27_177
*1178 FILLER_27_179
*1179 FILLER_27_201
*1180 FILLER_27_209
*1181 FILLER_27_217
*1182 FILLER_27_225
*1183 FILLER_27_233
*1184 FILLER_27_237
*1185 FILLER_27_239
*1186 FILLER_27_241
*1187 FILLER_27_249
*1188 FILLER_27_253
*1189 FILLER_28_4
*1190 FILLER_28_12
*1191 FILLER_28_20
*1192 FILLER_28_28
*1193 FILLER_28_31
*1194 FILLER_28_39
*1195 FILLER_28_47
*1196 FILLER_28_55
*1197 FILLER_28_63
*1198 FILLER_28_71
*1199 FILLER_28_80
*1200 FILLER_28_88
*1201 FILLER_28_91
*1202 FILLER_28_99
*1203 FILLER_28_107
*1204 FILLER_28_115
*1205 FILLER_28_123
*1206 FILLER_28_131
*1207 FILLER_28_139
*1208 FILLER_28_147
*1209 FILLER_28_149
*1210 FILLER_28_151
*1211 FILLER_28_159
*1212 FILLER_28_167
*1213 FILLER_28_175
*1214 FILLER_28_183
*1215 FILLER_28_191
*1216 FILLER_28_199
*1217 FILLER_28_207
*1218 FILLER_28_209
*1219 FILLER_28_211
*1220 FILLER_28_219
*1221 FILLER_28_227
*1222 FILLER_28_235
*1223 FILLER_28_243
*1224 FILLER_28_251
*1225 FILLER_28_253
*1226 FILLER_29_4
*1227 FILLER_29_12
*1228 FILLER_29_20
*1229 FILLER_29_28
*1230 FILLER_29_36
*1231 FILLER_29_44
*1232 FILLER_29_52
*1233 FILLER_29_61
*1234 FILLER_29_69
*1235 FILLER_29_73
*1236 FILLER_29_77
*1237 FILLER_29_85
*1238 FILLER_29_93
*1239 FILLER_29_101
*1240 FILLER_29_109
*1241 FILLER_29_117
*1242 FILLER_29_119
*1243 FILLER_29_121
*1244 FILLER_29_129
*1245 FILLER_29_137
*1246 FILLER_29_145
*1247 FILLER_29_153
*1248 FILLER_29_161
*1249 FILLER_29_169
*1250 FILLER_29_175
*1251 FILLER_29_179
*1252 FILLER_29_181
*1253 FILLER_29_189
*1254 FILLER_29_197
*1255 FILLER_29_205
*1256 FILLER_29_213
*1257 FILLER_29_221
*1258 FILLER_29_229
*1259 FILLER_29_237
*1260 FILLER_29_239
*1261 FILLER_29_241
*1262 FILLER_29_249
*1263 FILLER_29_253
*1264 FILLER_30_4
*1265 FILLER_30_12
*1266 FILLER_30_20
*1267 FILLER_30_28
*1268 FILLER_30_31
*1269 FILLER_30_39
*1270 FILLER_30_47
*1271 FILLER_30_55
*1272 FILLER_30_63
*1273 FILLER_30_67
*1274 FILLER_30_69
*1275 FILLER_30_91
*1276 FILLER_30_99
*1277 FILLER_30_107
*1278 FILLER_30_115
*1279 FILLER_30_123
*1280 FILLER_30_131
*1281 FILLER_30_139
*1282 FILLER_30_147
*1283 FILLER_30_149
*1284 FILLER_30_151
*1285 FILLER_30_159
*1286 FILLER_30_167
*1287 FILLER_30_175
*1288 FILLER_30_183
*1289 FILLER_30_191
*1290 FILLER_30_199
*1291 FILLER_30_207
*1292 FILLER_30_209
*1293 FILLER_30_211
*1294 FILLER_30_219
*1295 FILLER_30_227
*1296 FILLER_30_235
*1297 FILLER_30_243
*1298 FILLER_30_251
*1299 FILLER_30_253
*1300 FILLER_31_4
*1301 FILLER_31_12
*1302 FILLER_31_20
*1303 FILLER_31_28
*1304 FILLER_31_36
*1305 FILLER_31_44
*1306 FILLER_31_52
*1307 FILLER_31_61
*1308 FILLER_31_69
*1309 FILLER_31_73
*1310 FILLER_31_95
*1311 FILLER_31_103
*1312 FILLER_31_111
*1313 FILLER_31_119
*1314 FILLER_31_121
*1315 FILLER_31_129
*1316 FILLER_31_137
*1317 FILLER_31_139
*1318 FILLER_31_160
*1319 FILLER_31_168
*1320 FILLER_31_176
*1321 FILLER_31_181
*1322 FILLER_31_189
*1323 FILLER_31_197
*1324 FILLER_31_205
*1325 FILLER_31_213
*1326 FILLER_31_221
*1327 FILLER_31_229
*1328 FILLER_31_237
*1329 FILLER_31_239
*1330 FILLER_31_241
*1331 FILLER_31_249
*1332 FILLER_31_253
*1333 FILLER_32_4
*1334 FILLER_32_12
*1335 FILLER_32_20
*1336 FILLER_32_28
*1337 FILLER_32_31
*1338 FILLER_32_39
*1339 FILLER_32_47
*1340 FILLER_32_55
*1341 FILLER_32_63
*1342 FILLER_32_71
*1343 FILLER_32_73
*1344 FILLER_32_87
*1345 FILLER_32_89
*1346 FILLER_32_91
*1347 FILLER_32_99
*1348 FILLER_32_107
*1349 FILLER_32_115
*1350 FILLER_32_123
*1351 FILLER_32_127
*1352 FILLER_32_129
*1353 FILLER_32_151
*1354 FILLER_32_175
*1355 FILLER_32_183
*1356 FILLER_32_191
*1357 FILLER_32_199
*1358 FILLER_32_207
*1359 FILLER_32_209
*1360 FILLER_32_211
*1361 FILLER_32_219
*1362 FILLER_32_227
*1363 FILLER_32_235
*1364 FILLER_32_243
*1365 FILLER_32_251
*1366 FILLER_32_253
*1367 FILLER_33_4
*1368 FILLER_33_12
*1369 FILLER_33_20
*1370 FILLER_33_28
*1371 FILLER_33_36
*1372 FILLER_33_44
*1373 FILLER_33_52
*1374 FILLER_33_61
*1375 FILLER_33_65
*1376 FILLER_33_89
*1377 FILLER_33_97
*1378 FILLER_33_105
*1379 FILLER_33_113
*1380 FILLER_33_117
*1381 FILLER_33_119
*1382 FILLER_33_121
*1383 FILLER_33_125
*1384 FILLER_33_129
*1385 FILLER_33_181
*1386 FILLER_33_189
*1387 FILLER_33_197
*1388 FILLER_33_205
*1389 FILLER_33_213
*1390 FILLER_33_221
*1391 FILLER_33_229
*1392 FILLER_33_237
*1393 FILLER_33_239
*1394 FILLER_33_241
*1395 FILLER_33_249
*1396 FILLER_33_253
*1397 FILLER_34_4
*1398 FILLER_34_12
*1399 FILLER_34_20
*1400 FILLER_34_28
*1401 FILLER_34_31
*1402 FILLER_34_39
*1403 FILLER_34_47
*1404 FILLER_34_55
*1405 FILLER_34_63
*1406 FILLER_34_67
*1407 FILLER_34_69
*1408 FILLER_34_91
*1409 FILLER_34_99
*1410 FILLER_34_107
*1411 FILLER_34_115
*1412 FILLER_34_119
*1413 FILLER_34_140
*1414 FILLER_34_144
*1415 FILLER_34_148
*1416 FILLER_34_151
*1417 FILLER_34_159
*1418 FILLER_34_167
*1419 FILLER_34_192
*1420 FILLER_34_200
*1421 FILLER_34_208
*1422 FILLER_34_211
*1423 FILLER_34_219
*1424 FILLER_34_227
*1425 FILLER_34_235
*1426 FILLER_34_243
*1427 FILLER_34_251
*1428 FILLER_34_253
*1429 FILLER_35_4
*1430 FILLER_35_12
*1431 FILLER_35_20
*1432 FILLER_35_28
*1433 FILLER_35_36
*1434 FILLER_35_44
*1435 FILLER_35_52
*1436 FILLER_35_61
*1437 FILLER_35_69
*1438 FILLER_35_73
*1439 FILLER_35_75
*1440 FILLER_35_99
*1441 FILLER_35_107
*1442 FILLER_35_115
*1443 FILLER_35_141
*1444 FILLER_35_149
*1445 FILLER_35_157
*1446 FILLER_35_165
*1447 FILLER_35_174
*1448 FILLER_35_178
*1449 FILLER_35_181
*1450 FILLER_35_189
*1451 FILLER_35_197
*1452 FILLER_35_205
*1453 FILLER_35_213
*1454 FILLER_35_221
*1455 FILLER_35_229
*1456 FILLER_35_237
*1457 FILLER_35_239
*1458 FILLER_35_241
*1459 FILLER_35_249
*1460 FILLER_35_253
*1461 FILLER_36_4
*1462 FILLER_36_12
*1463 FILLER_36_20
*1464 FILLER_36_28
*1465 FILLER_36_31
*1466 FILLER_36_39
*1467 FILLER_36_47
*1468 FILLER_36_55
*1469 FILLER_36_63
*1470 FILLER_36_71
*1471 FILLER_36_79
*1472 FILLER_36_83
*1473 FILLER_36_88
*1474 FILLER_36_111
*1475 FILLER_36_119
*1476 FILLER_36_127
*1477 FILLER_36_135
*1478 FILLER_36_143
*1479 FILLER_36_147
*1480 FILLER_36_149
*1481 FILLER_36_151
*1482 FILLER_36_162
*1483 FILLER_36_170
*1484 FILLER_36_178
*1485 FILLER_36_186
*1486 FILLER_36_194
*1487 FILLER_36_202
*1488 FILLER_36_204
*1489 FILLER_36_208
*1490 FILLER_36_211
*1491 FILLER_36_219
*1492 FILLER_36_227
*1493 FILLER_36_235
*1494 FILLER_36_243
*1495 FILLER_36_251
*1496 FILLER_36_253
*1497 FILLER_37_4
*1498 FILLER_37_12
*1499 FILLER_37_20
*1500 FILLER_37_28
*1501 FILLER_37_36
*1502 FILLER_37_44
*1503 FILLER_37_52
*1504 FILLER_37_61
*1505 FILLER_37_69
*1506 FILLER_37_77
*1507 FILLER_37_85
*1508 FILLER_37_93
*1509 FILLER_37_117
*1510 FILLER_37_119
*1511 FILLER_37_121
*1512 FILLER_37_125
*1513 FILLER_37_130
*1514 FILLER_37_138
*1515 FILLER_37_146
*1516 FILLER_37_154
*1517 FILLER_37_177
*1518 FILLER_37_179
*1519 FILLER_37_181
*1520 FILLER_37_195
*1521 FILLER_37_200
*1522 FILLER_37_221
*1523 FILLER_37_229
*1524 FILLER_37_237
*1525 FILLER_37_239
*1526 FILLER_37_241
*1527 FILLER_37_249
*1528 FILLER_37_253
*1529 FILLER_38_4
*1530 FILLER_38_12
*1531 FILLER_38_20
*1532 FILLER_38_28
*1533 FILLER_38_31
*1534 FILLER_38_39
*1535 FILLER_38_47
*1536 FILLER_38_55
*1537 FILLER_38_63
*1538 FILLER_38_71
*1539 FILLER_38_79
*1540 FILLER_38_87
*1541 FILLER_38_89
*1542 FILLER_38_91
*1543 FILLER_38_99
*1544 FILLER_38_146
*1545 FILLER_38_192
*1546 FILLER_38_194
*1547 FILLER_38_209
*1548 FILLER_38_231
*1549 FILLER_38_239
*1550 FILLER_38_247
*1551 FILLER_38_251
*1552 FILLER_38_253
*1553 FILLER_39_4
*1554 FILLER_39_12
*1555 FILLER_39_20
*1556 FILLER_39_28
*1557 FILLER_39_36
*1558 FILLER_39_44
*1559 FILLER_39_52
*1560 FILLER_39_61
*1561 FILLER_39_69
*1562 FILLER_39_77
*1563 FILLER_39_85
*1564 FILLER_39_93
*1565 FILLER_39_101
*1566 FILLER_39_109
*1567 FILLER_39_113
*1568 FILLER_39_118
*1569 FILLER_39_121
*1570 FILLER_39_166
*1571 FILLER_39_184
*1572 FILLER_39_186
*1573 FILLER_39_213
*1574 FILLER_39_221
*1575 FILLER_39_229
*1576 FILLER_39_237
*1577 FILLER_39_239
*1578 FILLER_39_241
*1579 FILLER_39_249
*1580 FILLER_39_253
*1581 FILLER_40_4
*1582 FILLER_40_12
*1583 FILLER_40_20
*1584 FILLER_40_28
*1585 FILLER_40_31
*1586 FILLER_40_39
*1587 FILLER_40_47
*1588 FILLER_40_55
*1589 FILLER_40_63
*1590 FILLER_40_71
*1591 FILLER_40_79
*1592 FILLER_40_87
*1593 FILLER_40_89
*1594 FILLER_40_91
*1595 FILLER_40_99
*1596 FILLER_40_107
*1597 FILLER_40_115
*1598 FILLER_40_139
*1599 FILLER_40_147
*1600 FILLER_40_149
*1601 FILLER_40_151
*1602 FILLER_40_159
*1603 FILLER_40_167
*1604 FILLER_40_188
*1605 FILLER_40_192
*1606 FILLER_40_197
*1607 FILLER_40_205
*1608 FILLER_40_209
*1609 FILLER_40_211
*1610 FILLER_40_219
*1611 FILLER_40_227
*1612 FILLER_40_235
*1613 FILLER_40_243
*1614 FILLER_40_251
*1615 FILLER_40_253
*1616 FILLER_41_4
*1617 FILLER_41_12
*1618 FILLER_41_20
*1619 FILLER_41_28
*1620 FILLER_41_31
*1621 FILLER_41_39
*1622 FILLER_41_47
*1623 FILLER_41_55
*1624 FILLER_41_59
*1625 FILLER_41_61
*1626 FILLER_41_69
*1627 FILLER_41_77
*1628 FILLER_41_85
*1629 FILLER_41_89
*1630 FILLER_41_91
*1631 FILLER_41_99
*1632 FILLER_41_107
*1633 FILLER_41_115
*1634 FILLER_41_119
*1635 FILLER_41_121
*1636 FILLER_41_129
*1637 FILLER_41_137
*1638 FILLER_41_145
*1639 FILLER_41_149
*1640 FILLER_41_151
*1641 FILLER_41_159
*1642 FILLER_41_167
*1643 FILLER_41_175
*1644 FILLER_41_179
*1645 FILLER_41_181
*1646 FILLER_41_189
*1647 FILLER_41_197
*1648 FILLER_41_205
*1649 FILLER_41_209
*1650 FILLER_41_211
*1651 FILLER_41_219
*1652 FILLER_41_227
*1653 FILLER_41_235
*1654 FILLER_41_239
*1655 FILLER_41_241
*1656 FILLER_41_249
*1657 FILLER_41_253

*PORTS
CLK_REF I
DONE O
DOUT[0] O
DOUT[10] O
DOUT[11] O
DOUT[12] O
DOUT[13] O
DOUT[14] O
DOUT[15] O
DOUT[16] O
DOUT[17] O